22
Properties=species:S:1:pos:R:3 From=T Garvit:=T Li_0001_Opt_BCC_Li_Opt_Li_BCC_UnitCell_0_vc-relax_0P1-001-surface_0_relax_0=T pbc="F F F"
Li       5.06905000       1.68968000       1.73797000
Li       6.75874000       3.37937000      -0.02625000
Li       5.06905000       1.68969000       5.07028000
Li       6.75874000       3.37937000       3.37785000
Li      10.13811000       0.00000000       6.71042000
Li       1.68968000       1.68968000       8.47499000
Li      10.13811000       3.37937000       6.71042000
Li       1.68968000       5.06905000       8.47499000
Li      10.13811000       6.75874000       6.71042000
Li       1.68968000      -1.68969000       8.47499000
Li       3.37937000       0.00000000       6.71042000
Li       5.06905000       1.68968000       8.47499000
Li       3.37937000       3.37937000       6.71042000
Li       5.06905000       5.06905000       8.47500000
Li       3.37937000       6.75874000       6.71042000
Li       5.06905000      -1.68969000       8.47499000
Li       6.75874000      -0.00000000       6.71042000
Li       8.44842000       1.68968000       8.47499000
Li       6.75874000       3.37937000       6.71042000
Li       8.44842000       5.06905000       8.47499000
Li       6.75874000       6.75874000       6.71042000
Li       8.44842000      -1.68969000       8.47499000
