54
Properties=species:S:1:pos:R:3 pbc="T T T"
Li       8.44843000       1.68969000       0.00000000
Li       0.00000000       3.37937000       1.76422000
Li       8.44843000       5.06906000       0.00000000
Li       0.00000000       6.75874000       1.76422000
Li       8.44843000       8.44842000       0.00000000
Li       0.00000000       0.00000000       1.76422000
Li       1.68969000       1.68969000       0.00000000
Li       3.37937000       3.37937000       1.76422000
Li       1.68969000       5.06906000       0.00000000
Li       3.37937000       6.75874000       1.76422000
Li       1.68969000       8.44843000       0.00000000
Li       3.37937000       0.00000000       1.76422000
Li       5.06905000       1.68969000       0.00000000
Li       6.75874000       3.37937000       1.76422000
Li       5.06906000       5.06906000       0.00000000
Li       6.75874000       6.75874000       1.76422000
Li       5.06906000       8.44843000       0.00000000
Li       6.75874000       0.00000000       1.76422000
Li       8.44843000       1.68969000       3.40411000
Li       0.00001000       3.37938000       5.09653000
Li       8.44843000       5.06906000       3.40410000
Li       0.00001000       6.75874000       5.09653000
Li       8.44843000       8.44843000       3.40410000
Li       0.00001000       0.00000000       5.09653000
Li       1.68969000       1.68969000       3.40410000
Li       3.37937000       3.37938000       5.09653000
Li       1.68969000       5.06906000       3.40410000
Li       3.37937000       6.75874000       5.09654000
Li       1.68969000       8.44843000       3.40410000
Li       3.37937000       0.00000000       5.09653000
Li       5.06906000       1.68969000       3.40410000
Li       6.75874000       3.37938000       5.09653000
Li       5.06906000       5.06906000       3.40410000
Li       6.75874000       6.75874000       5.09653000
Li       5.06906000       8.44843000       3.40410000
Li       6.75874000       0.00000000       5.09653000
Li       8.44843000       1.68969000       6.73667000
Li       0.00000000       3.37937000       8.50124000
Li       8.44843000       5.06906000       6.73667000
Li       0.00000000       6.75874000       8.50124000
Li       8.44843000       8.44843000       6.73667000
Li       0.00000000       0.00000000       8.50124000
Li       1.68969000       1.68969000       6.73667000
Li       3.37937000       3.37937000       8.50124000
Li       1.68969000       5.06906000       6.73667000
Li       3.37937000       6.75874000       8.50125000
Li       1.68969000       8.44843000       6.73667000
Li       3.37937000       0.00000000       8.50124000
Li       5.06906000       1.68969000       6.73667000
Li       6.75874000       3.37937000       8.50124000
Li       5.06906000       5.06906000       6.73667000
Li       6.75874000       6.75874000       8.50124000
Li       5.06906000       8.44843000       6.73667000
Li       6.75874000       0.00000000       8.50124000
