18
Properties=species:S:1:pos:R:3 pbc="T T T"
Li       8.44843000       1.68969000       0.00000000
Li       0.00000000       3.37937000       1.76457000
Li       8.44843000       5.06906000       0.00000000
Li       0.00000000       6.75874000       1.76457000
Li       8.44843000       8.44843000       0.00000000
Li       0.00000000       0.00000000       1.76457000
Li       1.68969000       1.68969000       0.00000000
Li       3.37937000       3.37937000       1.76457000
Li       1.68969000       5.06906000       0.00000000
Li       3.37937000       6.75874000       1.76458000
Li       1.68969000       8.44843000       0.00000000
Li       3.37937000       0.00000000       1.76457000
Li       5.06906000       1.68969000       0.00000000
Li       6.75874000       3.37937000       1.76457000
Li       5.06906000       5.06906000       0.00000000
Li       6.75874000       6.75874000       1.76457000
Li       5.06906000       8.44843000       0.00000000
Li       6.75874000       0.00000000       1.76457000
