32
Properties=species:S:1:pos:R:3 pbc="T T T"
Li       0.00000000      -3.37937000       6.71042000
Li      -1.68969000      -5.06906000       8.47499000
Li       0.00000000       0.00000000       6.71042000
Li      -1.68969000      -1.68969000       8.47499000
Li       0.00000000       3.37937000       6.71042000
Li      -1.68969000       1.68968000       8.47499000
Li       0.00000000       6.75874000       6.71042000
Li      -1.68969000       5.06905000       8.47499000
Li       0.00000000      10.13811000       6.71042000
Li      -1.68969000       8.44842000       8.47499000
Li       3.37937000      -3.37937000       6.71042000
Li       1.68968000      -5.06906000       8.47499000
Li       3.37937000      10.13811000       6.71042000
Li       1.68968000       8.44842000       8.47499000
Li       6.75874000      -3.37937000       6.71042000
Li       5.06905000      -5.06906000       8.47499000
Li       6.75874000      10.13811000       6.71042000
Li       5.06905000       8.44842000       8.47499000
Li      10.13811000      -3.37937000       6.71042000
Li       8.44842000      -5.06906000       8.47499000
Li      10.13811000      10.13811000       6.71042000
Li       8.44842000       8.44842000       8.47499000
Li      13.51748000      -3.37937000       6.71042000
Li      11.82779000      -5.06906000       8.47499000
Li      13.51748000       0.00000000       6.71042000
Li      11.82779000      -1.68969000       8.47499000
Li      13.51748000       3.37937000       6.71042000
Li      11.82779000       1.68968000       8.47499000
Li      13.51748000       6.75874000       6.71042000
Li      11.82779000       5.06905000       8.47499000
Li      13.51748000      10.13811000       6.71042000
Li      11.82779000       8.44842000       8.47499000
