46
Properties=species:S:1:pos:R:3 pbc="T T T"
Li       8.50957549       1.71748624       0.12344968
Li       0.11099197       3.48489744       1.73865423
Li       8.50192643       5.12844648       0.05782775
Li       0.12698990       6.81832666       1.68852008
Li       8.49987853       8.52860471       0.09662263
Li       0.19652717       0.00000000       1.77651883
Li       1.75011066       1.74617187       0.05267354
Li       3.42321228       3.47643212       1.70234845
Li       1.74767752       5.12102539       0.00424908
Li       3.42140770       6.80530934       1.64359043
Li       1.75994462       8.50373594       0.00000000
Li       3.42302979       0.02452407       1.72842123
Li       5.11923615       1.74473226       0.06177512
Li       6.78928620       3.45959273       1.75162776
Li       5.12975951       5.12156271       0.02888873
Li       6.78060798       6.80894892       1.74270217
Li       5.12725539       8.50326959       0.03731147
Li       6.71616005       0.04127222       1.80852524
Li       8.58232653       1.69531420       3.25771385
Li       0.00000000       3.44895786       5.06347342
Li       8.55425412       5.18870738       3.29002197
Li       0.00782662       6.81411935       5.11788179
Li       8.53492075       8.49600057       3.30493147
Li       0.10417917       0.03949805       5.08109831
Li       1.80344723       1.82114316       3.38913370
Li       3.41091476       3.42523469       5.33584213
Li       1.83873798       5.17754532       3.43051826
Li       3.38745518       6.87055818       5.59040995
Li       1.84168817       8.37722253       3.43489306
Li       3.42932556       0.06385992       5.06390084
Li       5.01934540       1.81418842       3.37309279
Li       6.92691098       3.41976012       4.85717920
Li       5.01547265       5.18149919       3.40296208
Li       6.89975099       6.80994245       5.07845835
Li       5.02707064       8.38758367       3.41397450
Li       6.79786304       0.08154077       4.98797049
C        4.74246362       2.84959309       8.13271909
O        4.08208773       3.84530708       7.27986031
C        4.43646519       5.09291242       7.70165091
O        5.35550469       5.05033238       8.67272972
C        5.82164462       3.67345606       8.82584755
O        3.97193722       6.11395140       7.23664035
H        5.14034369       2.06471113       7.46367713
H        3.97983480       2.43720539       8.81166718
H        5.92333996       3.46817971       9.90056376
H        6.80120861       3.59791704       8.32166498
