108
Properties=species:S:1:pos:R:3 pbc="T T T"
Li       1.68969000       1.68969000       0.14121248
Li       0.00000000       0.00000000       1.90578248
Li       1.68969000       5.06906000       0.14121248
Li       0.00000000       3.37937000       1.90578248
Li       1.68969000       8.44843000       0.14121248
Li       0.00000000       6.75874000       1.90578248
Li       1.68969000      11.82780000       0.14121248
Li       0.00000000      10.13811000       1.90578248
Li       1.68969000      15.20717000       0.14121248
Li       0.00000000      13.51748000       1.90578248
Li       1.68969000      18.58654000       0.14121248
Li       0.00000000      16.89685000       1.90578248
Li       1.68969000      21.96591000       0.14121248
Li       0.00000000      20.27622000       1.90578248
Li       5.06906000       1.68969000       0.14121248
Li       3.37937000       0.00000000       1.90578248
Li       5.06906000       5.06906000       0.14121248
Li       3.37937000       3.37937000       1.90578248
Li       5.06906000       8.44843000       0.14121248
Li       3.37937000       6.75874000       1.90578248
Li       5.06906000      11.82780000       0.14121248
Li       3.37937000      10.13811000       1.90578248
Li       5.06906000      15.20717000       0.14121248
Li       3.37937000      13.51748000       1.90578248
Li       5.06906000      18.58654000       0.14121248
Li       3.37937000      16.89685000       1.90578248
Li       5.06906000      21.96591000       0.14121248
Li       3.37937000      20.27622000       1.90578248
Li       8.44843000       1.68969000       0.14121248
Li       6.75874000       0.00000000       1.90578248
Li       8.44843000       5.06906000       0.14121248
Li       6.75874000       3.37937000       1.90578248
Li       8.44843000      18.58654000       0.14121248
Li       6.75874000      16.89685000       1.90578248
Li       8.44843000      21.96591000       0.14121248
Li       6.75874000      20.27622000       1.90578248
Li      11.82780000       1.68969000       0.14121248
Li      10.13811000       0.00000000       1.90578248
Li      11.82780000       5.06906000       0.14121248
Li      10.13811000       3.37937000       1.90578248
Li      11.82780000      18.58654000       0.14121248
Li      10.13811000      16.89685000       1.90578248
Li      11.82780000      21.96591000       0.14121248
Li      10.13811000      20.27622000       1.90578248
Li      15.20717000       1.68969000       0.14121248
Li      13.51748000       0.00000000       1.90578248
Li      15.20717000       5.06906000       0.14121248
Li      13.51748000       3.37937000       1.90578248
Li      15.20717000      18.58654000       0.14121248
Li      13.51748000      16.89685000       1.90578248
Li      15.20717000      21.96591000       0.14121248
Li      13.51748000      20.27622000       1.90578248
Li      18.58654000       1.68969000       0.14121248
Li      16.89685000       0.00000000       1.90578248
Li      18.58654000       5.06906000       0.14121248
Li      16.89685000       3.37937000       1.90578248
Li      18.58654000       8.44843000       0.14121248
Li      16.89685000       6.75874000       1.90578248
Li      18.58654000      11.82780000       0.14121248
Li      16.89685000      10.13811000       1.90578248
Li      18.58654000      15.20717000       0.14121248
Li      16.89685000      13.51748000       1.90578248
Li      18.58654000      18.58654000       0.14121248
Li      16.89685000      16.89685000       1.90578248
Li      18.58654000      21.96591000       0.14121248
Li      16.89685000      20.27622000       1.90578248
Li      21.96591000       1.68969000       0.14121248
Li      20.27622000       0.00000000       1.90578248
Li      21.96591000       5.06906000       0.14121248
Li      20.27622000       3.37937000       1.90578248
Li      21.96591000       8.44843000       0.14121248
Li      20.27622000       6.75874000       1.90578248
Li      21.96591000      11.82780000       0.14121248
Li      20.27622000      10.13811000       1.90578248
Li      21.96591000      15.20717000       0.14121248
Li      20.27622000      13.51748000       1.90578248
Li      21.96591000      18.58654000       0.14121248
Li      20.27622000      16.89685000       1.90578248
Li      21.96591000      21.96591000       0.14121248
Li      20.27622000      20.27622000       1.90578248
Li      15.28627763       8.39977230       0.00000000
Li       6.70395110      10.15341596       1.80575957
Li      15.25820522      11.89316548       0.03230812
Li       6.71177772      13.51857745       1.86016794
Li      15.23887185      15.20045867       0.04721762
Li       6.80813027       6.74395615       1.82338446
Li       8.50739833       8.52560126       0.13141985
Li      10.11486586      10.12969279       2.07812828
Li       8.54268908      11.88200342       0.17280441
Li      10.09140628      13.57501628       2.33269610
Li       8.54563927      15.08168063       0.17717921
Li      10.13327666       6.76831802       1.80618699
Li      11.72329650       8.51864652       0.11537894
Li      13.63086208      10.12421822       1.59946535
Li      11.71942375      11.88595729       0.14524823
Li      13.60370209      13.51440055       1.82074450
Li      11.73102174      15.09204177       0.15626065
Li      13.50181414       6.78599887       1.73025664
C       11.44641472       9.55405119       4.87500524
O       10.78603883      10.54976518       4.02214646
C       11.14041629      11.79737052       4.44393706
O       12.05945579      11.75479048       5.41501587
C       12.52559572      10.37791416       5.56813370
O       10.67588832      12.81840950       3.97892650
H       11.84429479       8.76916923       4.20596328
H       10.68378590       9.14166349       5.55395333
H       12.62729106      10.17263781       6.64284991
H       13.50515971      10.30237514       5.06395113
