304

C	    6.52582727	    0.87482722	   11.19215918
O	    6.16689779	    1.73335238	   10.07854753
C	    6.16315683	    3.08469081	   10.62504493
O	    7.20861850	    3.12308382	   11.53897484
C	    7.38794131	    1.79315706	   12.07830663
O	    6.06500984	    4.01602784	    9.76358742
H	    7.07052737	    0.00714243	   10.78017416
H	    5.60755826	    0.53262563	   11.69883086
H	    7.06250813	    1.76936293	   13.13210428
H	    8.46357398	    1.56395478	   12.01577723
Li	   10.13811000	    0.00000000	   -0.02624877
Li	    1.68968756	    1.68968756	    1.73797538
Li	   10.13811000	    3.37936498	   -0.02624877
Li	    1.68968756	    5.06905253	    1.73797538
Li	   10.13811000	    6.75872995	   -0.02624877
Li	    1.68968756	   -1.68969249	    1.73797538
Li	    3.37936498	    0.00000000	   -0.02624877
Li	    5.06905253	    1.68968756	    1.73797538
Li	    3.37936498	    3.37936498	   -0.02624877
Li	    5.06905253	    5.06905253	    1.73797538
Li	    3.37936498	    6.75874009	   -0.02624877
Li	    5.06905253	   -1.68969249	    1.73797538
Li	    6.75872995	    0.00000000	   -0.02624877
Li	    8.44841751	    1.68968756	    1.73797538
Li	    6.75874009	    3.37936498	   -0.02624877
Li	    8.44841751	    5.06905253	    1.73797538
Li	    6.75874009	    6.75874009	   -0.02624877
Li	    8.44841751	   -1.68969249	    1.73797538
Li	   10.13983348	   -0.01049787	    3.44482435
Li	    1.68883596	    1.73981035	    5.09630953
Li	   10.13226552	    3.38918880	    3.39750616
Li	    1.70319151	    5.09144761	    5.06425284
Li	   10.12962961	    6.77356200	    3.40753802
Li	    1.72831374	   -1.73881161	    5.13859921
Li	    3.37137615	    0.00290964	    3.39758159
Li	    5.05801214	    1.75546358	    5.07599439
Li	    3.37187292	    3.38714090	    3.34608975
Li	    5.06335492	    5.08076205	    5.00647537
Li	    3.37516780	    6.76442757	    3.35622218
Li	    5.05334861	   -1.71769394	    5.04579824
Li	    6.75301206	    0.00883029	    3.38038412
Li	    8.39037686	    1.73392011	    5.12517312
Li	    6.76176125	    3.37965898	    3.36685745
Li	    8.38986995	    5.07481098	    5.07244929
Li	    6.75826360	    6.76258243	    3.35340622
Li	    8.39021465	   -1.71793725	    5.09661124
Li	   10.09077026	    0.00105436	    6.67314662
Li	    1.56879065	    1.68452726	    8.40425810
Li	   10.02912044	    3.43115042	    6.75644373
Li	    1.61960284	    5.09888898	    8.48262728
Li	   10.08072339	    6.68438723	    6.72780642
Li	    1.72300137	   -1.68362990	    8.41889104
Li	    3.40504480	    0.05073108	    6.69263206
Li	    4.90912393	    1.66969521	    8.60391470
Li	    3.36788864	    3.45292707	    6.71933340
Li	    5.01604038	    5.14188468	    8.82031621
Li	    3.47001991	    6.68950697	    6.77034753
Li	    5.07343220	   -1.66466151	    8.44104158
Li	    6.67319476	    0.00822200	    6.65225320
Li	    8.22975886	    1.61433102	    8.51543824
Li	    6.65139783	    3.47558573	    6.76607330
Li	    8.22819759	    4.98079019	    8.79640569
Li	    6.70020267	    6.71361539	    6.74573302
Li	    8.47220150	   -1.71917410	    8.36951116
Li	    0.00000000	   -6.75874000	   -0.02625000
Li	    0.00000000	   -3.37938000	   -0.02625000
Li	   -5.06906000	   -8.44843000	    1.73797000
Li	   -5.06906000	   -5.06906000	    1.73797000
Li	   -1.68969000	   -8.44843000	    1.73797000
Li	   -3.37937000	   -6.75874000	   -0.02625000
Li	   -1.68969000	   -5.06906000	    1.73797000
Li	   -3.37937000	   -3.37937000	   -0.02625000
Li	    0.00000000	   -6.75874000	    3.37785000
Li	    0.00000000	   -3.37937000	    3.37785000
Li	   -5.06906000	   -8.44842000	    5.07028000
Li	   -5.06906000	   -5.06906000	    5.07029000
Li	   -1.68969000	   -8.44842000	    5.07028000
Li	   -3.37937000	   -6.75874000	    3.37785000
Li	   -1.68969000	   -5.06906000	    5.07028000
Li	   -3.37937000	   -3.37937000	    3.37785000
Li	    0.00000000	   -6.75874000	    6.71042000
Li	    0.00000000	   -3.37937000	    6.71042000
Li	   -5.06906000	   -8.44843000	    8.47499000
Li	   -5.06906000	   -5.06906000	    8.47500000
Li	   -1.68969000	   -8.44843000	    8.47499000
Li	   -3.37937000	   -6.75874000	    6.71042000
Li	   -1.68969000	   -5.06906000	    8.47499000
Li	   -3.37937000	   -3.37937000	    6.71042000
Li	    0.00000000	    0.00000000	   -0.02625000
Li	    0.00000000	    3.37937000	   -0.02625000
Li	    0.00000000	    6.75873000	   -0.02625000
Li	   -5.06906000	    1.68968000	    1.73797000
Li	   -5.06906000	    5.06905000	    1.73797000
Li	   -5.06906000	   -1.68969000	    1.73797000
Li	   -3.37938000	    0.00000000	   -0.02625000
Li	   -1.68969000	    1.68968000	    1.73797000
Li	   -3.37937000	    3.37937000	   -0.02625000
Li	   -1.68969000	    5.06905000	    1.73797000
Li	   -3.37937000	    6.75874000	   -0.02625000
Li	   -1.68969000	   -1.68969000	    1.73797000
Li	    0.00000000	    0.00000000	    3.37786000
Li	    0.00000000	    3.37937000	    3.37785000
Li	    0.00000000	    6.75874000	    3.37785000
Li	   -5.06906000	    1.68969000	    5.07028000
Li	   -5.06906000	    5.06905000	    5.07029000
Li	   -5.06906000	   -1.68969000	    5.07028000
Li	   -3.37937000	    0.00000000	    3.37785000
Li	   -1.68969000	    1.68969000	    5.07028000
Li	   -3.37937000	    3.37937000	    3.37785000
Li	   -1.68969000	    5.06905000	    5.07028000
Li	   -3.37937000	    6.75874000	    3.37785000
Li	   -1.68969000	   -1.68969000	    5.07028000
Li	    0.00000000	    0.00000000	    6.71042000
Li	    0.00000000	    3.37937000	    6.71042000
Li	    0.00000000	    6.75874000	    6.71042000
Li	   -5.06906000	    1.68968000	    8.47499000
Li	   -5.06906000	    5.06905000	    8.47500000
Li	   -5.06906000	   -1.68969000	    8.47499000
Li	   -3.37937000	    0.00000000	    6.71042000
Li	   -1.68969000	    1.68968000	    8.47499000
Li	   -3.37937000	    3.37937000	    6.71042000
Li	   -1.68969000	    5.06905000	    8.47499000
Li	   -3.37937000	    6.75874000	    6.71042000
Li	   -1.68969000	   -1.68969000	    8.47499000
Li	    0.00000000	   10.13811000	   -0.02625000
Li	    0.00000000	   13.51748000	   -0.02625000
Li	   -5.06906000	   11.82779000	    1.73797000
Li	   -5.06906000	    8.44842000	    1.73797000
Li	   -3.37938000	   10.13811000	   -0.02625000
Li	   -1.68969000	   11.82779000	    1.73797000
Li	   -3.37937000	   13.51748000	   -0.02625000
Li	   -1.68969000	    8.44842000	    1.73797000
Li	    0.00000000	   10.13811000	    3.37786000
Li	    0.00000000	   13.51748000	    3.37785000
Li	   -5.06906000	   11.82780000	    5.07028000
Li	   -5.06906000	    8.44842000	    5.07028000
Li	   -3.37937000	   10.13811000	    3.37785000
Li	   -1.68969000	   11.82780000	    5.07028000
Li	   -3.37937000	   13.51748000	    3.37785000
Li	   -1.68969000	    8.44842000	    5.07028000
Li	    0.00000000	   10.13811000	    6.71042000
Li	    0.00000000	   13.51748000	    6.71042000
Li	   -5.06906000	   11.82779000	    8.47499000
Li	   -5.06906000	    8.44842000	    8.47499000
Li	   -3.37937000	   10.13811000	    6.71042000
Li	   -1.68969000	   11.82779000	    8.47499000
Li	   -3.37937000	   13.51748000	    6.71042000
Li	   -1.68969000	    8.44842000	    8.47499000
Li	    1.68968000	   -8.44843000	    1.73797000
Li	   10.13811000	   -6.75874000	   -0.02625000
Li	    1.68968000	   -5.06906000	    1.73797000
Li	   10.13811000	   -3.37938000	   -0.02625000
Li	    5.06905000	   -8.44843000	    1.73797000
Li	    3.37937000	   -6.75874000	   -0.02625000
Li	    5.06905000	   -5.06906000	    1.73797000
Li	    3.37937000	   -3.37937000	   -0.02625000
Li	    8.44842000	   -8.44843000	    1.73797000
Li	    6.75874000	   -6.75874000	   -0.02625000
Li	    8.44842000	   -5.06906000	    1.73797000
Li	    6.75874000	   -3.37937000	   -0.02625000
Li	    1.68969000	   -8.44842000	    5.07028000
Li	   10.13811000	   -6.75874000	    3.37785000
Li	    1.68969000	   -5.06906000	    5.07028000
Li	   10.13811000	   -3.37937000	    3.37785000
Li	    5.06905000	   -8.44842000	    5.07028000
Li	    3.37937000	   -6.75874000	    3.37785000
Li	    5.06905000	   -5.06906000	    5.07029000
Li	    3.37937000	   -3.37937000	    3.37785000
Li	    8.44842000	   -8.44842000	    5.07028000
Li	    6.75874000	   -6.75874000	    3.37785000
Li	    8.44842000	   -5.06906000	    5.07028000
Li	    6.75874000	   -3.37937000	    3.37785000
Li	    1.68968000	   -8.44843000	    8.47499000
Li	   10.13811000	   -6.75874000	    6.71042000
Li	    1.68968000	   -5.06906000	    8.47499000
Li	   10.13811000	   -3.37937000	    6.71042000
Li	    5.06905000	   -8.44843000	    8.47499000
Li	    3.37937000	   -6.75874000	    6.71042000
Li	    5.06905000	   -5.06906000	    8.47500000
Li	    3.37937000	   -3.37937000	    6.71042000
Li	    8.44842000	   -8.44843000	    8.47499000
Li	    6.75874000	   -6.75874000	    6.71042000
Li	    8.44842000	   -5.06906000	    8.47499000
Li	    6.75874000	   -3.37937000	    6.71042000
Li	   10.13811000	   10.13811000	   -0.02625000
Li	    1.68968000	   11.82779000	    1.73797000
Li	   10.13811000	   13.51748000	   -0.02625000
Li	    1.68968000	    8.44842000	    1.73797000
Li	    3.37937000	   10.13811000	   -0.02625000
Li	    5.06905000	   11.82779000	    1.73797000
Li	    3.37937000	   13.51748000	   -0.02625000
Li	    5.06905000	    8.44842000	    1.73797000
Li	    6.75873000	   10.13811000	   -0.02625000
Li	    8.44842000	   11.82779000	    1.73797000
Li	    6.75874000	   13.51748000	   -0.02625000
Li	    8.44842000	    8.44842000	    1.73797000
Li	   10.13811000	   10.13811000	    3.37786000
Li	    1.68969000	   11.82780000	    5.07028000
Li	   10.13811000	   13.51748000	    3.37785000
Li	    1.68969000	    8.44842000	    5.07028000
Li	    3.37937000	   10.13811000	    3.37785000
Li	    5.06905000	   11.82780000	    5.07028000
Li	    3.37937000	   13.51748000	    3.37785000
Li	    5.06905000	    8.44842000	    5.07028000
Li	    6.75874000	   10.13811000	    3.37785000
Li	    8.44842000	   11.82780000	    5.07028000
Li	    6.75874000	   13.51748000	    3.37785000
Li	    8.44842000	    8.44842000	    5.07028000
Li	   10.13811000	   10.13811000	    6.71042000
Li	    1.68968000	   11.82779000	    8.47499000
Li	   10.13811000	   13.51748000	    6.71042000
Li	    1.68968000	    8.44842000	    8.47499000
Li	    3.37937000	   10.13811000	    6.71042000
Li	    5.06905000	   11.82779000	    8.47499000
Li	    3.37937000	   13.51748000	    6.71042000
Li	    5.06905000	    8.44842000	    8.47499000
Li	    6.75874000	   10.13811000	    6.71042000
Li	    8.44842000	   11.82779000	    8.47499000
Li	    6.75874000	   13.51748000	    6.71042000
Li	    8.44842000	    8.44842000	    8.47499000
Li	   11.82779000	   -8.44843000	    1.73797000
Li	   11.82779000	   -5.06906000	    1.73797000
Li	   15.20716000	   -8.44843000	    1.73797000
Li	   13.51748000	   -6.75874000	   -0.02625000
Li	   15.20716000	   -5.06906000	    1.73797000
Li	   13.51748000	   -3.37937000	   -0.02625000
Li	   16.89685000	   -6.75874000	   -0.02625000
Li	   16.89685000	   -3.37937000	   -0.02625000
Li	   11.82780000	   -8.44842000	    5.07028000
Li	   11.82780000	   -5.06906000	    5.07028000
Li	   15.20716000	   -8.44842000	    5.07028000
Li	   13.51748000	   -6.75874000	    3.37785000
Li	   15.20716000	   -5.06906000	    5.07029000
Li	   13.51748000	   -3.37937000	    3.37785000
Li	   16.89685000	   -6.75874000	    3.37785000
Li	   16.89685000	   -3.37937000	    3.37785000
Li	   11.82779000	   -8.44843000	    8.47499000
Li	   11.82779000	   -5.06906000	    8.47499000
Li	   15.20716000	   -8.44843000	    8.47499000
Li	   13.51748000	   -6.75874000	    6.71042000
Li	   15.20716000	   -5.06906000	    8.47500000
Li	   13.51748000	   -3.37937000	    6.71042000
Li	   16.89685000	   -6.75874000	    6.71042000
Li	   16.89685000	   -3.37937000	    6.71042000
Li	   11.82779000	    1.68968000	    1.73797000
Li	   11.82779000	    5.06905000	    1.73797000
Li	   11.82779000	   -1.68969000	    1.73797000
Li	   13.51748000	    0.00000000	   -0.02625000
Li	   15.20716000	    1.68968000	    1.73797000
Li	   13.51748000	    3.37937000	   -0.02625000
Li	   15.20716000	    5.06905000	    1.73797000
Li	   13.51748000	    6.75874000	   -0.02625000
Li	   15.20716000	   -1.68969000	    1.73797000
Li	   16.89684000	    0.00000000	   -0.02625000
Li	   16.89685000	    3.37937000	   -0.02625000
Li	   16.89685000	    6.75874000	   -0.02625000
Li	   11.82780000	    1.68969000	    5.07028000
Li	   11.82780000	    5.06905000	    5.07028000
Li	   11.82780000	   -1.68969000	    5.07028000
Li	   13.51748000	    0.00000000	    3.37785000
Li	   15.20716000	    1.68969000	    5.07028000
Li	   13.51748000	    3.37937000	    3.37785000
Li	   15.20716000	    5.06905000	    5.07029000
Li	   13.51748000	    6.75874000	    3.37785000
Li	   15.20716000	   -1.68969000	    5.07028000
Li	   16.89685000	    0.00000000	    3.37785000
Li	   16.89685000	    3.37937000	    3.37785000
Li	   16.89685000	    6.75874000	    3.37785000
Li	   11.82779000	    1.68968000	    8.47499000
Li	   11.82779000	    5.06905000	    8.47499000
Li	   11.82779000	   -1.68969000	    8.47499000
Li	   13.51748000	    0.00000000	    6.71042000
Li	   15.20716000	    1.68968000	    8.47499000
Li	   13.51748000	    3.37937000	    6.71042000
Li	   15.20716000	    5.06905000	    8.47500000
Li	   13.51748000	    6.75874000	    6.71042000
Li	   15.20716000	   -1.68969000	    8.47499000
Li	   16.89685000	    0.00000000	    6.71042000
Li	   16.89685000	    3.37937000	    6.71042000
Li	   16.89685000	    6.75874000	    6.71042000
Li	   11.82779000	   11.82779000	    1.73797000
Li	   11.82779000	    8.44842000	    1.73797000
Li	   13.51748000	   10.13811000	   -0.02625000
Li	   15.20716000	   11.82779000	    1.73797000
Li	   13.51748000	   13.51748000	   -0.02625000
Li	   15.20716000	    8.44842000	    1.73797000
Li	   16.89684000	   10.13811000	   -0.02625000
Li	   16.89685000	   13.51748000	   -0.02625000
Li	   11.82780000	   11.82780000	    5.07028000
Li	   11.82780000	    8.44842000	    5.07028000
Li	   13.51748000	   10.13811000	    3.37785000
Li	   15.20716000	   11.82780000	    5.07028000
Li	   13.51748000	   13.51748000	    3.37785000
Li	   15.20716000	    8.44842000	    5.07028000
Li	   16.89685000	   10.13811000	    3.37785000
Li	   16.89685000	   13.51748000	    3.37785000
Li	   11.82779000	   11.82779000	    8.47499000
Li	   11.82779000	    8.44842000	    8.47499000
Li	   13.51748000	   10.13811000	    6.71042000
Li	   15.20716000	   11.82779000	    8.47499000
Li	   13.51748000	   13.51748000	    6.71042000
Li	   15.20716000	    8.44842000	    8.47499000
Li	   16.89685000	   10.13811000	    6.71042000
Li	   16.89685000	   13.51748000	    6.71042000
