46
Properties=species:S:1:pos:R:3 pbc="T T T"
Li       8.57104283       1.72831374       0.09873460
Li       0.12004531       3.47862196       1.75021978
Li       8.56347487       5.12800041       0.05141641
Li       0.13440086       6.83025922       1.71816309
Li       8.56083896       8.51237361       0.06144827
Li       0.15952309       0.00000000       1.79250946
Li       1.80258550       1.74172125       0.05149184
Li       3.48922149       3.49427519       1.72990464
Li       1.80308227       5.12595251       0.00000000
Li       3.49456427       6.81957366       1.66038562
Li       1.80637715       8.50323918       0.01013243
Li       3.48455796       0.02111767       1.69970849
Li       5.18422141       1.74764190       0.03429437
Li       6.82158621       3.47273172       1.77908337
Li       5.19297060       5.11847059       0.02076770
Li       6.82107930       6.81362259       1.72635954
Li       5.18947295       8.50139404       0.00731647
Li       6.82142400       0.02087436       1.75052149
Li       8.52197961       1.73986597       3.32705687
Li       0.00000000       3.42333887       5.05816835
Li       8.46032979       5.16996203       3.41035398
Li       0.05081219       6.83770059       5.13653753
Li       8.51193274       8.42319884       3.38171667
Li       0.15421072       0.05518171       5.07280129
Li       1.83625415       1.78954269       3.34654231
Li       3.34033328       3.40850682       5.25782495
Li       1.79909799       5.19173868       3.37324365
Li       3.44724973       6.88069629       5.47422646
Li       1.90122926       8.42831858       3.42425778
Li       3.50464155       0.07415010       5.09495183
Li       5.10440411       1.74703361       3.30616345
Li       6.66096821       3.35314263       5.16934849
Li       5.08260718       5.21439734       3.41998355
Li       6.65940694       6.71960180       5.45031594
Li       5.13141202       8.45242700       3.39964327
Li       6.90341085       0.01963751       5.02342141
C        4.95703662       2.61363883       7.84606943
O        4.59810714       3.47216399       6.73245778
C        4.59436618       4.82350242       7.27895518
O        5.63982785       4.86189543       8.19288509
C        5.81915066       3.53196867       8.73221688
O        4.49621919       5.75483945       6.41749767
H        5.50173672       1.74595404       7.43408441
H        4.03876761       2.27143724       8.35274111
H        5.49371748       3.50817454       9.78601453
H        6.89478333       3.30276639       8.66968748
