26

Li 5.05810338 1.73246022 5.01384212
Li 1.74588307 1.74092554 5.0501479
Li 8.4241773 1.71562083 5.06312143
Li 6.654236499999999 0.07021652 6.68458646
Li 3.43833833 0.07717126 6.70062737
Li 6.65036375 3.43752729 6.714455749999998
Li 3.4736290799999994 3.43357342 6.74201193
Li 8.56180208 1.6757882199999996 8.16867287
Li 8.43275414 -1.66243113 8.29946416
Li 1.6348911 1.7049859599999995 8.37496709
Li 5.06421666 -1.68011198 8.37539451
Li 8.53464209 5.06597055 8.38995202
Li 1.73907027 -1.70447385 8.39259198
Li 1.64271772 5.07014745 8.42937546
Li 5.045805859999998 1.68126279 8.6473358
Li 5.02234628 5.12658628 8.901903619999997
ghost-C 6.37735472 1.10562119 11.44421276
ghost-O 5.716978829999999 2.10133518 10.59135398
ghost-C 6.07135629 3.34894052 11.01314458
ghost-O 6.990395789999999 3.3063604799999995 11.98422339
ghost-C 7.456535719999998 1.92948416 12.13734122
ghost-O 5.60682832 4.3699794999999995 10.54813402
ghost-H 6.775234789999998 0.32073923 10.7751708
ghost-H 5.6147259 0.69323349 12.12316085
ghost-H 7.55823106 1.72420781 13.21205743
ghost-H 8.43609971 1.8539451399999998 11.633158649999999
