58

Li 13.435951999999997 10.096944 6.500486
Li 13.432865 16.780842 6.522690999999999
Li 16.753595 10.081202 6.530319
Li 13.437765 13.452556999999997 6.533408
Li 16.762285 13.452602 6.546692
Li 16.755899 16.78166 6.54899
Li 11.715607 11.744716 8.336133
Li 11.762713 18.505939 8.341273
Li 11.762713 8.43794 8.341273
Li 18.475506 18.507631 8.34541
Li 18.475506 8.439631 8.34541
Li 18.504187 11.716605999999997 8.365642
Li 11.716609 15.123314 8.391321
Li 18.501938 15.134043 8.428272
Li 15.038549 18.519014 8.437635
Li 15.038549 8.451014 8.437635
Li 15.056771 11.748805999999997 8.472772
Li 15.048334999999996 15.138086999999997 8.550385
Li 16.826569 13.41062 10.110286
Li 16.811796 16.873812 10.151228
Li 16.811796 6.805812 10.151228
Li 10.127062 10.03892 10.172212
Li 20.195063 10.03892 10.172212
Li 10.100071 13.398518 10.183224
Li 20.168071999999995 13.398518 10.183224
Li 20.155682 16.883568 10.18789
Li 10.087681 16.883568 10.18789
Li 16.803703 10.091102 10.189263
Li 16.803703 20.159101 10.189263
Li 13.309474 13.404986 10.216466
Li 13.309284999999996 16.853973 10.22629
Li 13.322634 10.144802 10.267141
Li 8.515509 11.699028 11.947299
Li 18.583508999999996 11.699028 11.947299
Li 18.526178 15.119038 11.953504
Li 8.458179 15.119038 11.953504
Li 15.057256 8.491583 11.969595
Li 15.057256 18.559584 11.969595
Li 21.695613999999996 15.129515 12.074998
Li 11.627613 15.129515 12.074998
Li 15.043033 15.191181 12.077135999999996
Li 18.489601 18.54869499999999 12.085311
Li 18.489601 8.480695 12.085311
Li 15.097711 11.767078 12.086338
Li 11.638257 11.733682 12.199399
Li 21.706257 11.733682 12.199399
Li 11.700916 8.459383 12.203204
Li 11.700916 18.527384 12.203204
ghost-O 15.721268 12.351191 13.983095
ghost-O 16.684698 13.645231 15.539486
ghost-O 15.644749 14.614942 13.777792
ghost-C 16.167662 11.412734 15.022309999999996
ghost-C 15.98944 13.625341999999996 14.394483
ghost-C 17.097055 12.281634 15.864136
ghost-H 16.675453 10.578789 14.513869
ghost-H 15.27245 11.061246 15.550388
ghost-H 16.979736 12.144326 16.942978
ghost-H 18.152042 12.180326 15.572331
