20

Li   11.7156070000   11.7447160000    8.3361330000
Li   11.7166090000   15.1233140000    8.3913210000
Li   18.5019380000   15.1340430000    8.4282720000
Li   15.0567710000   11.7488060000    8.4727720000
Li   15.0483350000   15.1380870000    8.5503850000
Li   16.8265690000   13.4106200000   10.1102860000
Li   16.8117960000   16.8738120000   10.1512280000
Li   10.1000710000   13.3985180000   10.1832240000
Li   16.8037030000   10.0911020000   10.1892630000
Li   13.3094740000   13.4049860000   10.2164660000
Li   13.3092850000   16.8539730000   10.2262900000
Li   13.3226340000   10.1448020000   10.2671410000
Li   18.5835090000   11.6990280000   11.9472990000
Li   18.5261780000   15.1190380000   11.9535040000
Li   15.0572560000    8.4915830000   11.9695950000
Li   15.0572560000   18.5595840000   11.9695950000
Li   11.6276130000   15.1295150000   12.0749980000
Li   15.0430330000   15.1911810000   12.0771360000
Li   15.0977110000   11.7670780000   12.0863380000
Li   11.6382570000   11.7336820000   12.1993990000
