6

Li   16.8265690000   13.4106200000   10.1102860000
Li   13.3094740000   13.4049860000   10.2164660000
Li   18.5261780000   15.1190380000   11.9535040000
Li   11.6276130000   15.1295150000   12.0749980000
Li   15.0430330000   15.1911810000   12.0771360000
Li   15.0977110000   11.7670780000   12.0863380000
