64

Li            0.0000000000        0.0000000000        0.0000000000   
Li            1.6780000000        1.6780000000        1.6780000000    
Li           -0.0017371634        0.0008470867        3.4285789665
Li            1.6587074696        1.6505412807        5.3300597262
Li           -0.0016824110        0.0009283476        7.1553345627
Li            1.6173913206        1.6291984918        9.0799263660
Li            0.0000000000        3.3560000000        0.0000000000   
Li            1.6780000000        5.0340000000        1.6780000000   
Li            0.0005410447        3.3546832487        3.4858411885
Li            1.6481495858        5.0361866966        5.3835517590
Li            0.0016036969        3.2992761846        7.1646160919
Li            1.5913446331        5.0405393308        8.9934879295
Li            0.0000000000        6.7120000000        0.0000000000    
Li            1.6780000000        8.3900000000        1.6780000000
Li           -0.0001156497        6.7130600988        3.4861843190
Li            1.6612901632        8.4144287620        5.3276363326
Li           -0.0023640317        6.7692702667        7.1638283498
Li            1.6345451138        8.4256593790        9.0743435351
Li            3.3560000000        0.0000000000        0.0000000000  
Li            5.0340000000        1.6780000000        1.6780000000    
Li            3.3685894978       -0.0007725669        3.4950080240
Li            5.0365598643        1.6598273001        5.4084527931
Li            3.3042421555        0.0019035837        7.1804187429
Li            5.0383140186        1.6126936855        9.0012191075
Li            3.3560000000        3.3560000000        0.0000000000   
Li            5.0340000000        5.0340000000        1.6780000000    
Li            3.3667748368        3.3674354294        3.5173913799
Li            5.0337600308        5.0348279605        5.5035643952
Li            3.2919408944        3.3118313112        7.1534990313
Li            5.0256565076        5.0397148196        9.0556801972
Li            3.3560000000        6.7120000000        0.0000000000  
Li            5.0340000000        8.3900000000        1.6780000000   
Li            3.3676500773        6.7013290523        3.5186535712
Li            5.0355861280        8.4092237502        5.4084948280
Li            3.2985898672        6.7534858056        7.1564724907
Li            5.0311167765        8.4572939624        8.9986197397
Li            6.7120000000        0.0000000000        0.0000000000   
Li            8.3900000000        1.6780000000        1.6780000000  
Li            6.7014198143        0.0012798246        3.4948029134
Li            8.4037962231        1.6582500466        5.3309994638
Li            6.7662419645        0.0005654115        7.1830226668
Li            8.4335364639        1.6450489088        9.0784589277
Li            6.7120000000        3.3560000000        0.0000000000   
Li            8.3900000000        5.0340000000        1.6780000000   
Li            6.7000834441        3.3679895996        3.5185507853
Li            8.4195059554        5.0311259861        5.3838567669
Li            6.7654604455        3.3206272230        7.1630612932
Li            8.4745697902        5.0287180108        8.9971864480
Li            6.7120000000        6.7120000000        0.0000000000   
Li            8.3900000000        8.3900000000        1.6780000000   
Li            6.7014513995        6.7002863119        3.5175882233
Li            8.4079772392        8.4164547729        5.3317036947
Li            6.7758883746        6.7539124713        7.1567870048
Li            8.4498442935        8.4387505864        9.0823045717
C             4.5776378717        4.3972860925       14.2726295712
O             4.5511715990        3.9949486199       12.8771179624
C             5.0306316379        5.0143598947       12.1264352263
O             5.5278200822        6.0179352240       12.8879687835
C             5.5492062025        5.5802880196       14.2729849489
O             5.0174331437        5.0274385119       10.9142893767
H             4.9161328835        3.5424276350       14.8670049028
H             3.5564987579        4.6802931504       14.5632560404
H             5.2286019568        6.4171634061       14.9027215017
H             6.5805535390        5.2935742458       14.5224121393