10
From Garvit's geom. Can be used for parallel
C        6.37735472       1.10562119      11.44421276
O        5.71697883       2.10133518      10.59135398
C        6.07135629       3.34894052      11.01314458
O        6.99039579       3.30636048      11.98422339
C        7.45653572       1.92948416      12.13734122
O        5.60682832       4.36997950      10.54813402
H        6.77523479       0.32073923      10.77517080
H        5.61472590       0.69323349      12.12316085
H        7.55823106       1.72420781      13.21205743
H        8.43609971       1.85394514      11.63315865
