132

Li 3.37937 3.37937 -0.02625
Li 6.75874 6.75874 -0.02625
Li 6.75874 3.37937 -0.02625
Li 3.37937 6.75874 -0.02625
Li 1.6896799999999998 5.06905 1.73797
Li 5.06905 5.06905 1.73797
Li 5.06905 -1.68969 1.73797
Li 5.06905 11.82779 1.73797
Li 1.6896799999999998 8.44842 1.73797
Li 8.44842 5.06905 1.73797
Li 5.06905 1.6896799999999998 1.73797
Li 5.06905 8.44842 1.73797
Li -1.68969 5.06905 1.73797
Li 8.44842 1.6896799999999998 1.73797
Li 8.44842 8.44842 1.73797
Li 1.6896799999999998 1.6896799999999998 1.73797
Li 11.82779 5.06905 1.73797
Li -3.37937 3.37937 3.37785
Li 6.75874 10.13811 3.37785
Li 3.37937 10.13811 3.37785
Li 10.13811 6.75874 3.37785
Li 10.13811 3.37937 3.37785
Li 6.75874 13.51748 3.37785
Li -3.37937 6.75874 3.37785
Li 6.75874 -3.37937 3.37785
Li 3.37937 13.51748 3.37785
Li 3.37937 -3.37937 3.37785
Li 13.51748 6.75874 3.37785
Li 10.13811 10.13811 3.3778599999999996
Li 0.0 10.13811 3.3778599999999996
Li 10.13811 0.0 3.3778599999999996
Li 6.75297128 0.00039333 3.42096609
Li 3.38495059 -0.00037887 3.42179851
Li -0.00086961 3.37823198 3.4405793699999996
Li -0.00095892 6.75884538 3.44090213
Li -0.00084121 5.708e-05 3.44154632
Li 6.742351529999999 3.39290638 3.45414343
Li 3.39462834 6.74517276 3.45439007
Li 6.74319947 6.74492457 3.45445697
Li 3.39428035 3.39245697 3.45448215
Li 1.7076944499999998 1.6839928899999999 5.055977479999999
Li 8.42826962 8.45369854 5.05616377
Li 1.70818449 8.4519508 5.05650473
Li 8.42671288 1.686187 5.05751732
Li 11.8278 1.68969 5.07028
Li -1.68969 1.68969 5.07028
Li 8.44842 -1.68969 5.07028
Li 1.68969 -1.68969 5.07028
Li -1.68969 8.44842 5.07028
Li 11.8278 8.44842 5.07028
Li 5.06905 -1.68969 5.07028
Li 5.06905 11.8278 5.07028
Li 11.8278 5.06905 5.07028
Li -1.68969 5.06905 5.07028
Li 8.44842 11.8278 5.07028
Li 1.68969 11.8278 5.07028
Li 5.06770859 8.47852111 5.08984577
Li 5.07074095 1.6596325 5.08989393
Li 1.67411891 5.07020192 5.10234987
Li 8.46090943 5.06584603 5.1027967
Li 5.067982199999999 5.06886832 5.14205473
Li 10.13811 6.75874 6.71042
Li 10.13811 3.37937 6.71042
Li 6.75874 10.13811 6.71042
Li 0.0 10.13811 6.71042
Li 3.37937 10.13811 6.71042
Li 10.13811 13.51748 6.71042
Li 3.37937 13.51748 6.71042
Li 3.37937 -3.37937 6.71042
Li 6.75874 -3.37937 6.71042
Li 13.51748 6.75874 6.71042
Li 13.51748 3.37937 6.71042
Li -3.37937 6.75874 6.71042
Li -3.37937 3.37937 6.71042
Li 6.75874 13.51748 6.71042
Li 10.13811 -3.37937 6.71042
Li -3.37937 10.13811 6.71042
Li 0.0 -3.37937 6.71042
Li 0.0 13.51748 6.71042
Li -3.37937 0.0 6.71042
Li 13.51748 10.13811 6.71042
Li 13.51748 0.0 6.71042
Li 10.13811 10.13811 6.71042
Li 10.13811 0.0 6.71042
Li -0.0054196 6.822927449999999 6.76455952
Li 0.0013215 3.31316837 6.76540399
Li -0.00107691 -0.00032039 6.774051789999999
Li 3.34351638 0.0025379499999999998 6.79850453
Li 6.79364057 -0.00293928 6.80012668
Li 3.39091914 3.37235384 6.80367992
Li 6.74414364 6.764773859999999 6.804447879999999
Li 3.3941868 6.76302687 6.80638661
Li 6.73905693 3.37613689 6.81080676
Li 5.06905 11.82779 8.47499
Li -1.68969 5.06905 8.47499
Li 8.44842 11.82779 8.47499
Li 5.06905 -1.68969 8.47499
Li 11.82779 5.06905 8.47499
Li -1.68969 11.82779 8.47499
Li 11.82779 11.82779 8.47499
Li -1.68969 -1.68969 8.47499
Li 11.82779 -1.68969 8.47499
Li 1.6896799999999998 -1.68969 8.47499
Li -1.68969 8.44842 8.47499
Li -1.68969 1.6896799999999998 8.47499
Li 8.44842 -1.68969 8.47499
Li 11.82779 8.44842 8.47499
Li 11.82779 1.6896799999999998 8.47499
Li 1.6896799999999998 11.82779 8.47499
Li 5.06905 -5.06906 8.475
Li -5.06906 5.06905 8.475
Li 15.207159999999998 5.06905 8.475
Li 5.06905 15.207159999999998 8.475
Li 1.61298484 5.072795199999999 8.56197657
Li 8.51880382 5.06383877 8.5638307
Li 5.06509481 8.514551379999999 8.624395989999998
Li 5.070303349999999 1.62423776 8.62516354
Li 1.67957629 8.45359347 8.64796308
Li 8.45651642 1.68327688 8.65044155
Li 1.66975995 1.67488755 8.65355617
Li 8.46743532 8.46154017 8.653942529999998
Li 5.05944531 5.0714175 8.88925642
C 4.64115177 4.41636006 14.10319873
O 4.62084969 4.02721447 12.70409848
C 5.0774503399999995 5.06195984 11.95946672
O 5.55709459 6.06813775 12.72817557
C 5.5807635399999995 5.625761089999999 14.11116681
O 5.05976494 5.085119459999999 10.748287569999999
H 5.00601554 3.56687736 14.689998849999998
H 3.61391496 4.66654862 14.402845669999998
H 5.2347129699999995 6.452050759999999 14.7407706
H 6.61696624 5.36463179 14.367330209999999
