18

Li 3.4736290799999994 3.43357342 6.74201193
Li 8.56180208 1.6757882199999998 8.16867287
Li 5.045805859999999 1.68126279 8.6473358
Li 5.02234628 5.12658628 8.901903619999999
H 6.775234789999999 0.32073923 10.7751708
H 8.43609971 1.8539451399999998 11.633158649999999
H 5.6147259 0.69323349 12.12316085
H 7.55823106 1.72420781 13.21205743
C 6.37735472 1.10562119 11.44421276
O 5.7169788299999995 2.10133518 10.59135398
C 6.07135629 3.34894052 11.01314458
O 6.990395789999999 3.3063604799999995 11.98422339
C 7.456535719999999 1.92948416 12.13734122
O 5.60682832 4.3699794999999995 10.54813402
Li 6.65036375 3.43752729 6.714455749999999
Li 8.53464209 5.06597055 8.38995202
Li 6.661961739999999 6.643611769999999 6.72546817
Li 8.43275414 -1.66243113 8.29946416
