28
Properties=species:S:1:pos:R:3 pbc="T T T"
Li       8.58232653       1.65581615       0.00000000
Li       0.00000000       3.40945981       1.80575957
Li       8.55425412       5.14920933       0.03230812
Li       0.00782662       6.77462130       1.86016794
Li       8.53492075       8.45650252       0.04721762
Li       0.10417917       0.00000000       1.82338446
Li       1.80344723       1.78164511       0.13141985
Li       3.41091476       3.38573664       2.07812828
Li       1.83873798       5.13804727       0.17280441
Li       3.38745518       6.83106013       2.33269610
Li       1.84168817       8.33772448       0.17717921
Li       3.42932556       0.02436187       1.80618699
Li       5.01934540       1.77469037       0.11537894
Li       6.92691098       3.38026207       1.59946535
Li       5.01547265       5.14200114       0.14524823
Li       6.89975099       6.77044440       1.82074450
Li       5.02707064       8.34808562       0.15626065
Li       6.79786304       0.04204272       1.73025664
C        4.74246362       2.81009504       4.87500524
O        4.08208773       3.80580903       4.02214646
C        4.43646519       5.05341437       4.44393706
O        5.35550469       5.01083433       5.41501587
C        5.82164462       3.63395801       5.56813370
O        3.97193722       6.07445335       3.97892650
H        5.14034369       2.02521308       4.20596328
H        3.97983480       2.39770734       5.55395333
H        5.92333996       3.42868166       6.64284991
H        6.80120861       3.55841899       5.06395113
