18

Li   11.7161500000   15.1041870000    8.3903520000
Li   18.4875070000   15.0991260000    8.3906570000
Li   15.1045600000   11.7278280000    8.4152530000
Li   15.1035860000   18.4772220000    8.4152950000
Li   15.1017600000   15.1028290000    8.5103650000
Li   13.3599410000   13.3798310000   10.1602990000
Li   13.3665900000   16.8214860000   10.1632730000
Li   16.8438890000   16.8219130000   10.1635870000
Li   16.8334600000   13.3886280000   10.1698620000
Li   11.6593450000   15.1085400000   12.0002890000
Li   18.5425700000   15.0967180000   12.0039870000
Li   15.0991170000   18.5252930000   12.0054210000
Li   15.1063140000   11.6806940000   12.0080190000
Li   15.0936570000   15.1077150000   12.0624810000
Li   11.7025450000   18.4936580000   12.0811440000
Li   18.5015350000   11.7130490000   12.0852590000
Li   11.6853920000   11.6971990000   12.0867270000
Li   18.5178430000   18.5067500000   12.0891050000
