344

Li 13.424 16.78 3.0068
Li 16.78 13.424 3.0068
Li 16.78 16.78 3.0068
Li 13.424 13.424 3.0068
Li 16.78 10.068 3.0068
Li 20.136 13.424 3.0068
Li 13.424 20.136 3.0068
Li 10.068 16.78 3.0068
Li 23.492 20.136 3.0068
Li 20.136 6.712 3.0068
Li 13.424 6.712 3.0068
Li 23.492 16.78 3.0068
Li 16.78 6.712 3.0068
Li 23.492 13.424 3.0068
Li 16.78 23.492 3.0068
Li 6.712 13.424 3.0068
Li 10.068 13.424 3.0068
Li 16.78 20.136 3.0068
Li 13.424 10.068 3.0068
Li 20.136 16.78 3.0068
Li 10.068 6.712 3.0068
Li 20.136 23.492 3.0068
Li 6.712 10.068 3.0068
Li 10.068 23.492 3.0068
Li 23.492 10.068 3.0068
Li 6.712 20.136 3.0068
Li 3.356 13.424 3.0068
Li 13.424 26.848 3.0068
Li 10.068 20.136 3.0068
Li 10.068 10.068 3.0068
Li 20.136 20.136 3.0068
Li 20.136 10.068 3.0068
Li 16.78 26.848 3.0068
Li 6.712 6.712 3.0068
Li 23.492 23.492 3.0068
Li 13.424 3.356 3.0068
Li 16.78 3.356 3.0068
Li 26.848 16.78 3.0068
Li 6.712 23.492 3.0068
Li 3.356 16.78 3.0068
Li 6.712 16.78 3.0068
Li 13.424 23.492 3.0068
Li 26.848 13.424 3.0068
Li 23.492 6.712 3.0068
Li 18.458001 15.102 4.684801
Li 15.102 11.746 4.684801
Li 8.390001 25.17 4.684801
Li 5.034 21.813999999999997 4.684801
Li 15.102 5.034 4.684801
Li 25.17 15.102 4.684801
Li 5.034 18.458001 4.684801
Li 11.746 25.17 4.684801
Li 5.034 11.746 4.684801
Li 18.458001 25.17 4.684801
Li 5.034 15.102 4.684801
Li 15.102 25.17 4.684801
Li 11.746 21.813999999999997 4.684801
Li 8.390001 18.458001 4.684801
Li 21.813999999999997 25.17 4.684801
Li 5.034 8.390001 4.684801
Li 15.102 1.678 4.684801
Li 15.102 28.526001 4.684801
Li 28.526001 15.102 4.684801
Li 1.678 15.102 4.684801
Li 18.458001 8.390001 4.684801
Li 21.813999999999997 11.746 4.684801
Li 11.746 5.034 4.684801
Li 25.17 18.458001 4.684801
Li 11.746 8.390001 4.684801
Li 21.813999999999997 18.458001 4.684801
Li 18.458001 11.746 4.684801
Li 11.746 18.458001 4.684801
Li 18.458001 18.458001 4.684801
Li 8.390001 21.813999999999997 4.684801
Li 21.813999999999997 21.813999999999997 4.684801
Li 8.390001 8.390001 4.684801
Li 15.102 15.102 4.684801
Li 21.813999999999997 8.390001 4.684801
Li 15.102 18.458001 4.684801
Li 11.746 15.102 4.684801
Li 25.17 8.390001 4.684801
Li 21.813999999999997 5.034 4.684801
Li 8.390001 5.034 4.684801
Li 25.17 21.813999999999997 4.684801
Li 8.390001 15.102 4.684801
Li 11.746 11.746 4.684801
Li 25.17 11.746 4.684801
Li 18.458001 5.034 4.684801
Li 18.458001 21.813999999999997 4.684801
Li 21.813999999999997 15.102 4.684801
Li 15.102 8.390001 4.684801
Li 15.102 21.813999999999997 4.684801
Li 8.390001 11.746 4.684801
Li 20.135068 10.068633 6.4784429999999995
Li 10.067068 10.068633 6.4784429999999995
Li 10.067068 20.136633 6.4784429999999995
Li 20.135068 20.136633 6.4784429999999995
Li 20.135614 23.500416 6.491939
Li 10.067613 3.364416 6.491939
Li 20.135614 3.364416 6.491939
Li 10.067613 13.432416 6.491939
Li 20.135614 13.432416 6.491939
Li 10.067613 23.500416 6.491939
Li 20.135577999999995 6.70392 6.492277
Li 20.135577999999995 26.83992 6.492277
Li 10.067577 16.77192 6.492277
Li 20.135577999999995 16.77192 6.492277
Li 10.067577 26.83992 6.492277
Li 10.067577 6.70392 6.492277
Li 6.697315999999999 10.068607 6.496062
Li 16.765316 10.068607 6.496062
Li 6.697315999999999 20.136607 6.496062
Li 26.833316 10.068607 6.496062
Li 26.833316 20.136607 6.496062
Li 16.765316 20.136607 6.496062
Li 23.50729 10.068142999999997 6.496648
Li 13.43929 10.068142999999997 6.496648
Li 23.50729 20.136142999999997 6.496648
Li 3.37129 20.136142999999997 6.496648
Li 3.37129 10.068142999999997 6.496648
Li 13.43929 20.136142999999997 6.496648
Li 16.766125 13.434248 6.528946
Li 16.766125 23.502247999999998 6.528946
Li 6.698125 23.502247999999998 6.528946
Li 16.766125 3.366248 6.528946
Li 6.698125 13.434248 6.528946
Li 26.834125 13.434248 6.528946
Li 26.834125 23.502247999999998 6.528946
Li 13.43764 16.770678 6.529620999999999
Li 23.50564 16.770678 6.529620999999999
Li 3.36964 6.702678 6.529620999999999
Li 3.36964 16.770678 6.529620999999999
Li 13.43764 26.838678999999996 6.529620999999999
Li 13.43764 6.702678 6.529620999999999
Li 23.50564 6.702678 6.529620999999999
Li 16.767042 16.770315 6.530833999999999
Li 6.699042 6.702315 6.530833999999999
Li 6.699042 16.770315 6.530833999999999
Li 16.767042 6.702315 6.530833999999999
Li 16.767042 26.838315 6.530833999999999
Li 6.699042 26.838315 6.530833999999999
Li 26.835042 16.770315 6.530833999999999
Li 26.835042 6.702315 6.530833999999999
Li 13.437153 13.433603 6.531278
Li 3.369153 13.433603 6.531278
Li 3.369153 23.501603 6.531278
Li 13.437153 23.501603 6.531278
Li 23.505152999999996 23.501603 6.531278
Li 23.505152999999996 13.433603 6.531278
Li 13.437153 3.3656019999999995 6.531278
Li 11.735797 1.667205 8.337905
Li 11.735797 11.735206 8.337905
Li 1.667797 11.735206 8.337905
Li 21.803796999999996 11.735206 8.337905
Li 21.803796999999996 21.803206 8.337905
Li 11.735797 21.803206 8.337905
Li 18.466800999999997 28.537806999999997 8.338351
Li 8.398801 8.401807 8.338351
Li 8.398801 18.469807 8.338351
Li 18.466800999999997 8.401807 8.338351
Li 18.466800999999997 18.469807 8.338351
Li 28.534801999999996 18.469807 8.338351
Li 21.804679 8.40172 8.339303
Li 11.736679 28.53772 8.339303
Li 11.736679 8.40172 8.339303
Li 21.804679 18.46972 8.339303
Li 1.6686779999999999 18.46972 8.339303
Li 11.736679 18.46972 8.339303
Li 18.465495 11.736694 8.339855
Li 8.397495 21.804694 8.339855
Li 18.465495 1.668693 8.339855
Li 28.533495 11.736694 8.339855
Li 18.465495 21.804694 8.339855
Li 8.397495 11.736694 8.339855
Li 11.732613 5.033989 8.398767
Li 11.732613 15.101989 8.398767
Li 21.800613 25.169989 8.398767
Li 21.800613 5.033989 8.398767
Li 21.800613 15.101989 8.398767
Li 1.664613 15.101989 8.398767
Li 11.732613 25.169989 8.398767
Li 18.470303 25.169929 8.399153
Li 18.470303 5.033929 8.399153
Li 18.470303 15.101929 8.399153
Li 28.538302999999996 15.101929 8.399153
Li 8.402303 15.101929 8.399153
Li 8.402303 5.033929 8.399153
Li 8.402303 25.169929 8.399153
Li 5.034416 11.736091 8.413954
Li 15.102416 11.736091 8.413954
Li 15.102416 21.804091 8.413954
Li 15.102416 1.668091 8.413954
Li 25.170416 11.736091 8.413954
Li 5.034416 21.804091 8.413954
Li 25.170416 21.804091 8.413954
Li 5.035448 8.401239 8.414083
Li 15.103448 18.469239 8.414083
Li 25.171447999999998 8.401239 8.414083
Li 25.171447999999998 18.469239 8.414083
Li 5.035448 18.469239 8.414083
Li 15.103448 28.537239 8.414083
Li 15.103448 8.401239 8.414083
Li 25.169484 25.170595 8.457321
Li 15.101484 15.102594 8.457321
Li 5.033484 5.034594 8.457321
Li 5.033484 25.170595 8.457321
Li 15.101484 5.034594 8.457321
Li 25.169484 5.034594 8.457321
Li 5.033484 15.102594 8.457321
Li 25.169484 15.102594 8.457321
Li 15.101484 25.170595 8.457321
Li 20.134259 6.760871 10.173788
Li 10.066259 26.896871 10.173788
Li 20.134259 26.896871 10.173788
Li 10.066259 16.828871 10.173788
Li 20.134259 16.828871 10.173788
Li 30.202259 16.828871 10.173788
Li 10.066259 6.760871 10.173788
Li 10.06727 13.376022 10.17447
Li 30.203270999999997 13.376022 10.17447
Li 20.135271 3.308022 10.17447
Li 10.06727 23.444022 10.17447
Li 10.06727 3.308022 10.17447
Li 20.135271 23.444022 10.17447
Li 20.135271 13.376022 10.17447
Li 13.371692 0.001744 10.18038
Li 13.371692 10.069744 10.18038
Li 3.3036919999999994 20.137743999999998 10.18038
Li 23.439692 10.069744 10.18038
Li 3.3036919999999994 10.069744 10.18038
Li 23.439692 20.137743999999998 10.18038
Li 13.371692 20.137743999999998 10.18038
Li 26.901108 10.068657 10.181974
Li 16.833108 10.068657 10.181974
Li 16.833108 20.136657 10.181974
Li 6.765108 20.136657 10.181974
Li 6.765108 10.068657 10.181974
Li 26.901108 20.136657 10.181974
Li 16.833108 0.000656 10.181974
Li 23.451364 26.88127 10.183126
Li 23.451364 16.81327 10.183126
Li 3.315364 6.74527 10.183126
Li 13.383364 26.88127 10.183126
Li 23.451364 6.74527 10.183126
Li 13.383364 6.74527 10.183126
Li 13.383364 16.81327 10.183126
Li 3.315364 16.81327 10.183126
Li 16.818384 13.393681 10.186214
Li 26.886384 23.461681 10.186214
Li 26.886384 13.393681 10.186214
Li 6.750383 13.393681 10.186214
Li 16.818384 23.461681 10.186214
Li 6.750383 23.461681 10.186214
Li 16.818384 3.325681 10.186214
Li 6.750383 3.325681 10.186214
Li 10.067613 20.136549 10.186786
Li 20.135614 20.136549 10.186786
Li 20.135614 10.068549 10.186786
Li 10.067613 10.068549 10.186786
Li 23.448398 3.321757 10.187069
Li 23.448398 13.389757 10.187069
Li 13.380398 23.457757 10.187069
Li 23.448398 23.457757 10.187069
Li 3.3123979999999995 23.457757 10.187069
Li 13.380398 3.321757 10.187069
Li 3.3123979999999995 13.389757 10.187069
Li 13.380398 13.389757 10.187069
Li 6.755274 6.746523999999999 10.187765
Li 16.823274 16.814525 10.187765
Li 16.823274 6.746523999999999 10.187765
Li 6.755274 16.814525 10.187765
Li 26.891274 16.814525 10.187765
Li 6.755274 26.882525 10.187765
Li 16.823274 26.882525 10.187765
Li 26.891274 6.746523999999999 10.187765
Li 25.167138999999995 5.035918 11.956035
Li 5.031139 25.171918 11.956035
Li 5.031139 5.035918 11.956035
Li 25.167138999999995 25.171918 11.956035
Li 15.099138999999997 5.035918 11.956035
Li 5.031139 15.103918 11.956035
Li 25.167138999999995 15.103918 11.956035
Li 15.099138999999997 25.171918 11.956035
Li 15.099138999999997 15.103918 11.956035
Li 5.035485 8.412185 12.003582
Li 25.171486 8.412185 12.003582
Li 15.103486 8.412185 12.003582
Li 15.103486 28.548185 12.003582
Li 25.171486 18.480185 12.003582
Li 5.035485 18.480185 12.003582
Li 15.103486 18.480185 12.003582
Li 5.031407 21.793996 12.00565
Li 5.031407 11.725996 12.00565
Li 25.167408 11.725996 12.00565
Li 25.167408 21.793996 12.00565
Li 15.099407999999999 21.793996 12.00565
Li 15.099407999999999 11.725996 12.00565
Li 15.099407999999999 1.657996 12.00565
Li 21.782604 15.101997 12.009805
Li 11.714603 15.101997 12.009805
Li 21.782604 25.169997 12.009805
Li 11.714603 5.033997 12.009805
Li 11.714603 25.169997 12.009805
Li 1.646603 15.101997 12.009805
Li 21.782604 5.033997 12.009805
Li 18.487144 5.035507 12.012952
Li 28.555144 15.103507 12.012952
Li 18.487144 25.171507 12.012952
Li 18.487144 15.103507 12.012952
Li 8.419144 15.103507 12.012952
Li 8.419144 25.171507 12.012952
Li 8.419144 5.035507 12.012952
Li 1.657161 18.474629 12.076636
Li 11.725161 28.542629 12.076636
Li 1.657161 8.406629 12.076636
Li 11.725161 18.474629 12.076636
Li 21.793161 28.542629 12.076636
Li 21.793161 18.474629 12.076636
Li 11.725161 8.406629 12.076636
Li 21.793161 8.406629 12.076636
Li 8.411506 11.730202 12.078431
Li 28.547505999999995 21.798202 12.078431
Li 8.411506 1.6622019999999997 12.078431
Li 18.479506 11.730202 12.078431
Li 28.547505999999995 11.730202 12.078431
Li 8.411506 21.798202 12.078431
Li 18.479506 1.6622019999999997 12.078431
Li 18.479506 21.798202 12.078431
Li 21.787147 1.658379 12.081761
Li 1.6511469999999997 11.726379999999999 12.081761
Li 21.787147 11.726379999999999 12.081761
Li 11.719146999999998 21.79438 12.081761
Li 11.719146999999998 11.726379999999999 12.081761
Li 1.6511469999999997 21.79438 12.081761
Li 11.719146999999998 1.658379 12.081761
Li 21.787147 21.79438 12.081761
Li 8.417106 8.410811 12.082475
Li 18.485106 28.546811 12.082475
Li 8.417106 28.546811 12.082475
Li 18.485106 18.478811 12.082475
Li 8.417106 18.478811 12.082475
Li 18.485106 8.410811 12.082475
Li 28.553106 18.478811 12.082475
Li 28.553106 8.410811 12.082475
