112

Li 16.780001 13.424 3.0068
Li 13.424 13.424 3.0068
Li 18.458 18.458 4.6848
Li 15.102 15.102 4.6848
Li 11.746 15.102 4.6848
Li 11.746 11.746 4.6848
Li 15.102 11.746 4.6848
Li 15.102 18.458 4.6848
Li 18.458 11.746 4.6848
Li 18.458 15.102 4.6848
Li 15.102 8.390001 4.6848
Li 11.746 18.458 4.6848
Li 10.070958 10.058614999999998 6.428002
Li 20.138958 10.058614999999998 6.428002
Li 20.131811 16.78611 6.495336
Li 10.063811 16.78611 6.495336
Li 13.435951999999999 20.164944 6.500486
Li 13.435951999999999 10.096944 6.500486
Li 10.054628999999998 13.442730999999998 6.506123
Li 20.122629 13.442730999999998 6.506123
Li 13.432865 16.780842 6.522690999999999
Li 13.432865 6.712842 6.522690999999999
Li 16.753595 20.149202 6.530319
Li 16.753595 10.081202 6.530319
Li 13.437765 13.452556999999999 6.533408
Li 16.762285 13.452602 6.546692
Li 16.755899 16.78166 6.54899
Li 16.755899 6.71366 6.54899
Li 21.783607 11.744716 8.336133
Li 11.715607 11.744716 8.336133
Li 21.830712999999996 8.43794 8.341273
Li 21.830712999999996 18.505939 8.341273
Li 11.762713 8.43794 8.341273
Li 11.762713 18.505939 8.341273
Li 8.407506 8.439631 8.34541
Li 18.475506 18.507631 8.34541
Li 8.407506 18.507631 8.34541
Li 18.475506 8.439631 8.34541
Li 18.504187 11.716605999999999 8.365642
Li 8.436186 11.716605999999999 8.365642
Li 21.784609 15.123314 8.391321
Li 11.716609 15.123314 8.391321
Li 18.501938 15.134043 8.428272
Li 8.433938 15.134043 8.428272
Li 15.038549 8.451014 8.437635
Li 15.038549 18.519014 8.437635
Li 15.056771 21.816807 8.472772
Li 15.056771 11.748805999999998 8.472772
Li 15.048334999999998 15.138086999999999 8.550385
Li 15.048334999999998 5.070087 8.550385
Li 16.826569 13.41062 10.110286
Li 6.7585679999999995 13.41062 10.110286
Li 6.743796 16.873812 10.151228
Li 16.811796 6.805812 10.151228
Li 16.811796 16.873812 10.151228
Li 10.127062 10.03892 10.172212
Li 20.195063 10.03892 10.172212
Li 10.127062 20.10692 10.172212
Li 20.195063 20.10692 10.172212
Li 10.100071 13.398518 10.183224
Li 20.168071999999995 13.398518 10.183224
Li 10.087681 6.815566999999999 10.18789
Li 10.087681 16.883568 10.18789
Li 20.155682 16.883568 10.18789
Li 20.155682 6.815566999999999 10.18789
Li 6.735702 10.091102 10.189263
Li 16.803703 20.159101 10.189263
Li 16.803703 10.091102 10.189263
Li 23.377474 13.404986 10.216466
Li 13.309474 13.404986 10.216466
Li 13.309284999999997 6.785973 10.22629
Li 23.377285 16.853973 10.22629
Li 13.309284999999997 16.853973 10.22629
Li 23.390635 10.144802 10.267141
Li 13.322634 20.212803 10.267141
Li 13.322634 10.144802 10.267141
Li 8.515509 11.699028 11.947299
Li 18.583508999999996 11.699028 11.947299
Li 18.583508999999996 21.767029 11.947299
Li 18.526178 5.051037 11.953504
Li 8.458179 15.119038 11.953504
Li 18.526178 15.119038 11.953504
Li 15.057256 8.491583 11.969595
Li 15.057256 18.559584 11.969595
Li 21.695613999999996 15.129515 12.074998
Li 11.627613 15.129515 12.074998
Li 11.627613 5.061515 12.074998
Li 15.043033 15.191181 12.077135999999998
Li 15.043033 5.123180999999999 12.077135999999998
Li 8.421601 8.480695 12.085311
Li 8.421601 18.548694999999995 12.085311
Li 18.489601 8.480695 12.085311
Li 18.489601 18.548694999999995 12.085311
Li 15.097711 21.835077 12.086338
Li 15.097711 11.767078 12.086338
Li 11.638257 11.733682 12.199399
Li 11.638257 21.801682 12.199399
Li 21.706257 11.733682 12.199399
Li 11.700916 8.459383 12.203204
Li 21.768915 8.459383 12.203204
Li 21.768915 18.527384 12.203204
Li 11.700916 18.527384 12.203204
O 15.721268 12.351191 13.983095
O 16.684698 13.645231 15.539486
O 15.644749 14.614942 13.777792
C 16.167662 11.412734 15.022309999999997
C 15.98944 13.625341999999998 14.394483
C 17.097055 12.281634 15.864136
H 16.675453 10.578789 14.513869
H 15.27245 11.061246 15.550388
H 16.979736 12.144326 16.942978
H 18.152042 12.180326 15.572331
