18

Li 15.048334999999998 15.138086999999999 8.550385
Li 16.826569 13.41062 10.110286
Li 13.309474 13.404986 10.216466
Li 18.526178 15.119038 11.953504
Li 11.627613 15.129515 12.074998
Li 15.043033 15.191181 12.077135999999998
Li 15.097711 11.767078 12.086338
Li 11.638257 11.733682 12.199399
O 15.721268 12.351191 13.983095
O 16.684698 13.645231 15.539486
O 15.644749 14.614942 13.777792
C 16.167662 11.412734 15.022309999999997
C 15.98944 13.625341999999998 14.394483
C 17.097055 12.281634 15.864136
H 16.675453 10.578789 14.513869
H 15.27245 11.061246 15.550388
H 16.979736 12.144326 16.942978
H 18.152042 12.180326 15.572331
