394

C	    4.64115177	    4.41636006	   14.10319873
O	    4.62084969	    4.02721447	   12.70409848
C	    5.07745034	    5.06195984	   11.95946672
O	    5.55709459	    6.06813775	   12.72817557
C	    5.58076354	    5.62576109	   14.11116681
O	    5.05976494	    5.08511946	   10.74828757
H	    5.00601554	    3.56687736	   14.68999885
H	    3.61391496	    4.66654862	   14.40284567
H	    5.23471297	    6.45205076	   14.74077060
H	    6.61696624	    5.36463179	   14.36733021
ghost-Li	    0.00000000	    0.00000000	   -0.02625000
ghost-Li	    1.68968000	    1.68968000	    1.73797000
ghost-Li	    0.00000000	    3.37937000	   -0.02625000
ghost-Li	    1.68968000	    5.06905000	    1.73797000
ghost-Li	    0.00000000	    6.75873000	   -0.02625000
ghost-Li	    1.68968000	    8.44842000	    1.73797000
ghost-Li	    3.37937000	    0.00000000	   -0.02625000
ghost-Li	    5.06905000	    1.68968000	    1.73797000
ghost-Li	    3.37937000	    3.37937000	   -0.02625000
ghost-Li	    5.06905000	    5.06905000	    1.73797000
ghost-Li	    3.37937000	    6.75874000	   -0.02625000
ghost-Li	    5.06905000	    8.44842000	    1.73797000
ghost-Li	    6.75873000	    0.00000000	   -0.02625000
ghost-Li	    8.44842000	    1.68968000	    1.73797000
ghost-Li	    6.75874000	    3.37937000	   -0.02625000
ghost-Li	    8.44842000	    5.06905000	    1.73797000
ghost-Li	    6.75874000	    6.75874000	   -0.02625000
ghost-Li	    8.44842000	    8.44842000	    1.73797000
ghost-Li	   -0.00084121	    0.00005708	    3.44154632
ghost-Li	    1.70769445	    1.68399289	    5.05597748
ghost-Li	   -0.00086961	    3.37823198	    3.44057937
ghost-Li	    1.67411891	    5.07020192	    5.10234987
ghost-Li	   -0.00095892	    6.75884538	    3.44090213
ghost-Li	    1.70818449	    8.45195080	    5.05650473
ghost-Li	    3.38495059	   -0.00037887	    3.42179851
ghost-Li	    5.07074095	    1.65963250	    5.08989393
ghost-Li	    3.39428035	    3.39245697	    3.45448215
ghost-Li	    5.06798220	    5.06886832	    5.14205473
ghost-Li	    3.39462834	    6.74517276	    3.45439007
ghost-Li	    5.06770859	    8.47852111	    5.08984577
ghost-Li	    6.75297128	    0.00039333	    3.42096609
ghost-Li	    8.42671288	    1.68618700	    5.05751732
ghost-Li	    6.74235153	    3.39290638	    3.45414343
ghost-Li	    8.46090943	    5.06584603	    5.10279670
ghost-Li	    6.74319947	    6.74492457	    3.45445697
ghost-Li	    8.42826962	    8.45369854	    5.05616377
ghost-Li	   -0.00107691	   -0.00032039	    6.77405179
ghost-Li	    1.66975995	    1.67488755	    8.65355617
ghost-Li	    0.00132150	    3.31316837	    6.76540399
ghost-Li	    1.61298484	    5.07279520	    8.56197657
ghost-Li	   -0.00541960	    6.82292745	    6.76455952
ghost-Li	    1.67957629	    8.45359347	    8.64796308
ghost-Li	    3.34351638	    0.00253795	    6.79850453
ghost-Li	    5.07030335	    1.62423776	    8.62516354
ghost-Li	    3.39091914	    3.37235384	    6.80367992
ghost-Li	    5.05944531	    5.07141750	    8.88925642
ghost-Li	    3.39418680	    6.76302687	    6.80638661
ghost-Li	    5.06509481	    8.51455138	    8.62439599
ghost-Li	    6.79364057	   -0.00293928	    6.80012668
ghost-Li	    8.45651642	    1.68327688	    8.65044155
ghost-Li	    6.73905693	    3.37613689	    6.81080676
ghost-Li	    8.51880382	    5.06383877	    8.56383070
ghost-Li	    6.74414364	    6.76477386	    6.80444788
ghost-Li	    8.46743532	    8.46154017	    8.65394253
ghost-Li	   -6.75874000	   -6.75874000	   -0.02625000
ghost-Li	   -5.06906000	   -5.06906000	    1.73797000
ghost-Li	   -6.75874000	   -3.37937000	   -0.02625000
ghost-Li	   -5.06906000	   -1.68969000	    1.73797000
ghost-Li	   -3.37937000	   -6.75874000	   -0.02625000
ghost-Li	   -1.68969000	   -5.06906000	    1.73797000
ghost-Li	   -3.37937000	   -3.37937000	   -0.02625000
ghost-Li	   -1.68969000	   -1.68969000	    1.73797000
ghost-Li	   -6.75874000	   -6.75874000	    3.37785000
ghost-Li	   -5.06906000	   -5.06906000	    5.07029000
ghost-Li	   -6.75874000	   -3.37937000	    3.37785000
ghost-Li	   -5.06906000	   -1.68969000	    5.07028000
ghost-Li	   -3.37937000	   -6.75874000	    3.37785000
ghost-Li	   -1.68969000	   -5.06906000	    5.07028000
ghost-Li	   -3.37937000	   -3.37937000	    3.37785000
ghost-Li	   -1.68969000	   -1.68969000	    5.07028000
ghost-Li	   -6.75874000	   -6.75874000	    6.71042000
ghost-Li	   -5.06906000	   -5.06906000	    8.47500000
ghost-Li	   -6.75874000	   -3.37937000	    6.71042000
ghost-Li	   -5.06906000	   -1.68969000	    8.47499000
ghost-Li	   -3.37937000	   -6.75874000	    6.71042000
ghost-Li	   -1.68969000	   -5.06906000	    8.47499000
ghost-Li	   -3.37937000	   -3.37937000	    6.71042000
ghost-Li	   -1.68969000	   -1.68969000	    8.47499000
ghost-Li	   -6.75874000	    0.00000000	   -0.02625000
ghost-Li	   -5.06906000	    1.68968000	    1.73797000
ghost-Li	   -6.75874000	    3.37937000	   -0.02625000
ghost-Li	   -5.06906000	    5.06905000	    1.73797000
ghost-Li	   -6.75874000	    6.75874000	   -0.02625000
ghost-Li	   -5.06906000	    8.44842000	    1.73797000
ghost-Li	   -3.37938000	    0.00000000	   -0.02625000
ghost-Li	   -1.68969000	    1.68968000	    1.73797000
ghost-Li	   -3.37937000	    3.37937000	   -0.02625000
ghost-Li	   -1.68969000	    5.06905000	    1.73797000
ghost-Li	   -3.37937000	    6.75874000	   -0.02625000
ghost-Li	   -1.68969000	    8.44842000	    1.73797000
ghost-Li	   -6.75874000	    0.00000000	    3.37785000
ghost-Li	   -5.06906000	    1.68969000	    5.07028000
ghost-Li	   -6.75874000	    3.37937000	    3.37785000
ghost-Li	   -5.06906000	    5.06905000	    5.07029000
ghost-Li	   -6.75874000	    6.75874000	    3.37785000
ghost-Li	   -5.06906000	    8.44842000	    5.07028000
ghost-Li	   -3.37937000	    0.00000000	    3.37785000
ghost-Li	   -1.68969000	    1.68969000	    5.07028000
ghost-Li	   -3.37937000	    3.37937000	    3.37785000
ghost-Li	   -1.68969000	    5.06905000	    5.07028000
ghost-Li	   -3.37937000	    6.75874000	    3.37785000
ghost-Li	   -1.68969000	    8.44842000	    5.07028000
ghost-Li	   -6.75874000	    0.00000000	    6.71042000
ghost-Li	   -5.06906000	    1.68968000	    8.47499000
ghost-Li	   -6.75874000	    3.37937000	    6.71042000
ghost-Li	   -5.06906000	    5.06905000	    8.47500000
ghost-Li	   -6.75874000	    6.75874000	    6.71042000
ghost-Li	   -5.06906000	    8.44842000	    8.47499000
ghost-Li	   -3.37937000	    0.00000000	    6.71042000
ghost-Li	   -1.68969000	    1.68968000	    8.47499000
ghost-Li	   -3.37937000	    3.37937000	    6.71042000
ghost-Li	   -1.68969000	    5.06905000	    8.47499000
ghost-Li	   -3.37937000	    6.75874000	    6.71042000
ghost-Li	   -1.68969000	    8.44842000	    8.47499000
ghost-Li	   -6.75874000	   10.13811000	   -0.02625000
ghost-Li	   -5.06906000	   11.82779000	    1.73797000
ghost-Li	   -6.75874000	   13.51748000	   -0.02625000
ghost-Li	   -5.06906000	   15.20716000	    1.73797000
ghost-Li	   -6.75874000	   16.89685000	   -0.02625000
ghost-Li	   -5.06906000	   18.58653000	    1.73797000
ghost-Li	   -3.37938000	   10.13811000	   -0.02625000
ghost-Li	   -1.68969000	   11.82779000	    1.73797000
ghost-Li	   -3.37937000	   13.51748000	   -0.02625000
ghost-Li	   -1.68969000	   15.20716000	    1.73797000
ghost-Li	   -3.37937000	   16.89685000	   -0.02625000
ghost-Li	   -1.68969000	   18.58653000	    1.73797000
ghost-Li	   -6.75874000	   10.13811000	    3.37785000
ghost-Li	   -5.06906000	   11.82780000	    5.07028000
ghost-Li	   -6.75874000	   13.51748000	    3.37785000
ghost-Li	   -5.06906000	   15.20716000	    5.07029000
ghost-Li	   -6.75874000	   16.89685000	    3.37785000
ghost-Li	   -5.06906000	   18.58653000	    5.07028000
ghost-Li	   -3.37937000	   10.13811000	    3.37785000
ghost-Li	   -1.68969000	   11.82780000	    5.07028000
ghost-Li	   -3.37937000	   13.51748000	    3.37785000
ghost-Li	   -1.68969000	   15.20716000	    5.07028000
ghost-Li	   -3.37937000	   16.89685000	    3.37785000
ghost-Li	   -1.68969000	   18.58653000	    5.07028000
ghost-Li	   -6.75874000	   10.13811000	    6.71042000
ghost-Li	   -5.06906000	   11.82779000	    8.47499000
ghost-Li	   -6.75874000	   13.51748000	    6.71042000
ghost-Li	   -5.06906000	   15.20716000	    8.47500000
ghost-Li	   -6.75874000	   16.89685000	    6.71042000
ghost-Li	   -5.06906000	   18.58653000	    8.47499000
ghost-Li	   -3.37937000	   10.13811000	    6.71042000
ghost-Li	   -1.68969000	   11.82779000	    8.47499000
ghost-Li	   -3.37937000	   13.51748000	    6.71042000
ghost-Li	   -1.68969000	   15.20716000	    8.47499000
ghost-Li	   -3.37937000	   16.89685000	    6.71042000
ghost-Li	   -1.68969000	   18.58653000	    8.47499000
ghost-Li	    0.00000000	   -6.75874000	   -0.02625000
ghost-Li	    1.68968000	   -5.06906000	    1.73797000
ghost-Li	    0.00000000	   -3.37938000	   -0.02625000
ghost-Li	    1.68968000	   -1.68969000	    1.73797000
ghost-Li	    3.37937000	   -6.75874000	   -0.02625000
ghost-Li	    5.06905000	   -5.06906000	    1.73797000
ghost-Li	    3.37937000	   -3.37937000	   -0.02625000
ghost-Li	    5.06905000	   -1.68969000	    1.73797000
ghost-Li	    6.75874000	   -6.75874000	   -0.02625000
ghost-Li	    8.44842000	   -5.06906000	    1.73797000
ghost-Li	    6.75874000	   -3.37937000	   -0.02625000
ghost-Li	    8.44842000	   -1.68969000	    1.73797000
ghost-Li	    0.00000000	   -6.75874000	    3.37785000
ghost-Li	    1.68969000	   -5.06906000	    5.07028000
ghost-Li	    0.00000000	   -3.37937000	    3.37785000
ghost-Li	    1.68969000	   -1.68969000	    5.07028000
ghost-Li	    3.37937000	   -6.75874000	    3.37785000
ghost-Li	    5.06905000	   -5.06906000	    5.07029000
ghost-Li	    3.37937000	   -3.37937000	    3.37785000
ghost-Li	    5.06905000	   -1.68969000	    5.07028000
ghost-Li	    6.75874000	   -6.75874000	    3.37785000
ghost-Li	    8.44842000	   -5.06906000	    5.07028000
ghost-Li	    6.75874000	   -3.37937000	    3.37785000
ghost-Li	    8.44842000	   -1.68969000	    5.07028000
ghost-Li	    0.00000000	   -6.75874000	    6.71042000
ghost-Li	    1.68968000	   -5.06906000	    8.47499000
ghost-Li	    0.00000000	   -3.37937000	    6.71042000
ghost-Li	    1.68968000	   -1.68969000	    8.47499000
ghost-Li	    3.37937000	   -6.75874000	    6.71042000
ghost-Li	    5.06905000	   -5.06906000	    8.47500000
ghost-Li	    3.37937000	   -3.37937000	    6.71042000
ghost-Li	    5.06905000	   -1.68969000	    8.47499000
ghost-Li	    6.75874000	   -6.75874000	    6.71042000
ghost-Li	    8.44842000	   -5.06906000	    8.47499000
ghost-Li	    6.75874000	   -3.37937000	    6.71042000
ghost-Li	    8.44842000	   -1.68969000	    8.47499000
ghost-Li	    0.00000000	   10.13811000	   -0.02625000
ghost-Li	    1.68968000	   11.82779000	    1.73797000
ghost-Li	    0.00000000	   13.51748000	   -0.02625000
ghost-Li	    1.68968000	   15.20716000	    1.73797000
ghost-Li	    0.00000000	   16.89684000	   -0.02625000
ghost-Li	    1.68968000	   18.58653000	    1.73797000
ghost-Li	    3.37937000	   10.13811000	   -0.02625000
ghost-Li	    5.06905000	   11.82779000	    1.73797000
ghost-Li	    3.37937000	   13.51748000	   -0.02625000
ghost-Li	    5.06905000	   15.20716000	    1.73797000
ghost-Li	    3.37937000	   16.89685000	   -0.02625000
ghost-Li	    5.06905000	   18.58653000	    1.73797000
ghost-Li	    6.75873000	   10.13811000	   -0.02625000
ghost-Li	    8.44842000	   11.82779000	    1.73797000
ghost-Li	    6.75874000	   13.51748000	   -0.02625000
ghost-Li	    8.44842000	   15.20716000	    1.73797000
ghost-Li	    6.75874000	   16.89685000	   -0.02625000
ghost-Li	    8.44842000	   18.58653000	    1.73797000
ghost-Li	    0.00000000	   10.13811000	    3.37786000
ghost-Li	    1.68969000	   11.82780000	    5.07028000
ghost-Li	    0.00000000	   13.51748000	    3.37785000
ghost-Li	    1.68969000	   15.20716000	    5.07028000
ghost-Li	    0.00000000	   16.89685000	    3.37785000
ghost-Li	    1.68969000	   18.58653000	    5.07028000
ghost-Li	    3.37937000	   10.13811000	    3.37785000
ghost-Li	    5.06905000	   11.82780000	    5.07028000
ghost-Li	    3.37937000	   13.51748000	    3.37785000
ghost-Li	    5.06905000	   15.20716000	    5.07029000
ghost-Li	    3.37937000	   16.89685000	    3.37785000
ghost-Li	    5.06905000	   18.58653000	    5.07028000
ghost-Li	    6.75874000	   10.13811000	    3.37785000
ghost-Li	    8.44842000	   11.82780000	    5.07028000
ghost-Li	    6.75874000	   13.51748000	    3.37785000
ghost-Li	    8.44842000	   15.20716000	    5.07028000
ghost-Li	    6.75874000	   16.89685000	    3.37785000
ghost-Li	    8.44842000	   18.58653000	    5.07028000
ghost-Li	    0.00000000	   10.13811000	    6.71042000
ghost-Li	    1.68968000	   11.82779000	    8.47499000
ghost-Li	    0.00000000	   13.51748000	    6.71042000
ghost-Li	    1.68968000	   15.20716000	    8.47499000
ghost-Li	    0.00000000	   16.89685000	    6.71042000
ghost-Li	    1.68968000	   18.58653000	    8.47499000
ghost-Li	    3.37937000	   10.13811000	    6.71042000
ghost-Li	    5.06905000	   11.82779000	    8.47499000
ghost-Li	    3.37937000	   13.51748000	    6.71042000
ghost-Li	    5.06905000	   15.20716000	    8.47500000
ghost-Li	    3.37937000	   16.89685000	    6.71042000
ghost-Li	    5.06905000	   18.58653000	    8.47499000
ghost-Li	    6.75874000	   10.13811000	    6.71042000
ghost-Li	    8.44842000	   11.82779000	    8.47499000
ghost-Li	    6.75874000	   13.51748000	    6.71042000
ghost-Li	    8.44842000	   15.20716000	    8.47499000
ghost-Li	    6.75874000	   16.89685000	    6.71042000
ghost-Li	    8.44842000	   18.58653000	    8.47499000
ghost-Li	   10.13811000	   -6.75874000	   -0.02625000
ghost-Li	   11.82779000	   -5.06906000	    1.73797000
ghost-Li	   10.13811000	   -3.37938000	   -0.02625000
ghost-Li	   11.82779000	   -1.68969000	    1.73797000
ghost-Li	   13.51748000	   -6.75874000	   -0.02625000
ghost-Li	   15.20716000	   -5.06906000	    1.73797000
ghost-Li	   13.51748000	   -3.37937000	   -0.02625000
ghost-Li	   15.20716000	   -1.68969000	    1.73797000
ghost-Li	   16.89685000	   -6.75874000	   -0.02625000
ghost-Li	   18.58653000	   -5.06906000	    1.73797000
ghost-Li	   16.89685000	   -3.37937000	   -0.02625000
ghost-Li	   18.58653000	   -1.68969000	    1.73797000
ghost-Li	   10.13811000	   -6.75874000	    3.37785000
ghost-Li	   11.82780000	   -5.06906000	    5.07028000
ghost-Li	   10.13811000	   -3.37937000	    3.37785000
ghost-Li	   11.82780000	   -1.68969000	    5.07028000
ghost-Li	   13.51748000	   -6.75874000	    3.37785000
ghost-Li	   15.20716000	   -5.06906000	    5.07029000
ghost-Li	   13.51748000	   -3.37937000	    3.37785000
ghost-Li	   15.20716000	   -1.68969000	    5.07028000
ghost-Li	   16.89685000	   -6.75874000	    3.37785000
ghost-Li	   18.58653000	   -5.06906000	    5.07028000
ghost-Li	   16.89685000	   -3.37937000	    3.37785000
ghost-Li	   18.58653000	   -1.68969000	    5.07028000
ghost-Li	   10.13811000	   -6.75874000	    6.71042000
ghost-Li	   11.82779000	   -5.06906000	    8.47499000
ghost-Li	   10.13811000	   -3.37937000	    6.71042000
ghost-Li	   11.82779000	   -1.68969000	    8.47499000
ghost-Li	   13.51748000	   -6.75874000	    6.71042000
ghost-Li	   15.20716000	   -5.06906000	    8.47500000
ghost-Li	   13.51748000	   -3.37937000	    6.71042000
ghost-Li	   15.20716000	   -1.68969000	    8.47499000
ghost-Li	   16.89685000	   -6.75874000	    6.71042000
ghost-Li	   18.58653000	   -5.06906000	    8.47499000
ghost-Li	   16.89685000	   -3.37937000	    6.71042000
ghost-Li	   18.58653000	   -1.68969000	    8.47499000
ghost-Li	   10.13811000	    0.00000000	   -0.02625000
ghost-Li	   11.82779000	    1.68968000	    1.73797000
ghost-Li	   10.13811000	    3.37937000	   -0.02625000
ghost-Li	   11.82779000	    5.06905000	    1.73797000
ghost-Li	   10.13811000	    6.75873000	   -0.02625000
ghost-Li	   11.82779000	    8.44842000	    1.73797000
ghost-Li	   13.51748000	    0.00000000	   -0.02625000
ghost-Li	   15.20716000	    1.68968000	    1.73797000
ghost-Li	   13.51748000	    3.37937000	   -0.02625000
ghost-Li	   15.20716000	    5.06905000	    1.73797000
ghost-Li	   13.51748000	    6.75874000	   -0.02625000
ghost-Li	   15.20716000	    8.44842000	    1.73797000
ghost-Li	   16.89684000	    0.00000000	   -0.02625000
ghost-Li	   18.58653000	    1.68968000	    1.73797000
ghost-Li	   16.89685000	    3.37937000	   -0.02625000
ghost-Li	   18.58653000	    5.06905000	    1.73797000
ghost-Li	   16.89685000	    6.75874000	   -0.02625000
ghost-Li	   18.58653000	    8.44842000	    1.73797000
ghost-Li	   10.13811000	    0.00000000	    3.37786000
ghost-Li	   11.82780000	    1.68969000	    5.07028000
ghost-Li	   10.13811000	    3.37937000	    3.37785000
ghost-Li	   11.82780000	    5.06905000	    5.07028000
ghost-Li	   10.13811000	    6.75874000	    3.37785000
ghost-Li	   11.82780000	    8.44842000	    5.07028000
ghost-Li	   13.51748000	    0.00000000	    3.37785000
ghost-Li	   15.20716000	    1.68969000	    5.07028000
ghost-Li	   13.51748000	    3.37937000	    3.37785000
ghost-Li	   15.20716000	    5.06905000	    5.07029000
ghost-Li	   13.51748000	    6.75874000	    3.37785000
ghost-Li	   15.20716000	    8.44842000	    5.07028000
ghost-Li	   16.89685000	    0.00000000	    3.37785000
ghost-Li	   18.58653000	    1.68969000	    5.07028000
ghost-Li	   16.89685000	    3.37937000	    3.37785000
ghost-Li	   18.58653000	    5.06905000	    5.07028000
ghost-Li	   16.89685000	    6.75874000	    3.37785000
ghost-Li	   18.58653000	    8.44842000	    5.07028000
ghost-Li	   10.13811000	    0.00000000	    6.71042000
ghost-Li	   11.82779000	    1.68968000	    8.47499000
ghost-Li	   10.13811000	    3.37937000	    6.71042000
ghost-Li	   11.82779000	    5.06905000	    8.47499000
ghost-Li	   10.13811000	    6.75874000	    6.71042000
ghost-Li	   11.82779000	    8.44842000	    8.47499000
ghost-Li	   13.51748000	    0.00000000	    6.71042000
ghost-Li	   15.20716000	    1.68968000	    8.47499000
ghost-Li	   13.51748000	    3.37937000	    6.71042000
ghost-Li	   15.20716000	    5.06905000	    8.47500000
ghost-Li	   13.51748000	    6.75874000	    6.71042000
ghost-Li	   15.20716000	    8.44842000	    8.47499000
ghost-Li	   16.89685000	    0.00000000	    6.71042000
ghost-Li	   18.58653000	    1.68968000	    8.47499000
ghost-Li	   16.89685000	    3.37937000	    6.71042000
ghost-Li	   18.58653000	    5.06905000	    8.47499000
ghost-Li	   16.89685000	    6.75874000	    6.71042000
ghost-Li	   18.58653000	    8.44842000	    8.47499000
ghost-Li	   10.13811000	   10.13811000	   -0.02625000
ghost-Li	   11.82779000	   11.82779000	    1.73797000
ghost-Li	   10.13811000	   13.51748000	   -0.02625000
ghost-Li	   11.82779000	   15.20716000	    1.73797000
ghost-Li	   10.13811000	   16.89684000	   -0.02625000
ghost-Li	   11.82779000	   18.58653000	    1.73797000
ghost-Li	   13.51748000	   10.13811000	   -0.02625000
ghost-Li	   15.20716000	   11.82779000	    1.73797000
ghost-Li	   13.51748000	   13.51748000	   -0.02625000
ghost-Li	   15.20716000	   15.20716000	    1.73797000
ghost-Li	   13.51748000	   16.89685000	   -0.02625000
ghost-Li	   15.20716000	   18.58653000	    1.73797000
ghost-Li	   16.89684000	   10.13811000	   -0.02625000
ghost-Li	   18.58653000	   11.82779000	    1.73797000
ghost-Li	   16.89685000	   13.51748000	   -0.02625000
ghost-Li	   18.58653000	   15.20716000	    1.73797000
ghost-Li	   16.89685000	   16.89685000	   -0.02625000
ghost-Li	   18.58653000	   18.58653000	    1.73797000
ghost-Li	   10.13811000	   10.13811000	    3.37786000
ghost-Li	   11.82780000	   11.82780000	    5.07028000
ghost-Li	   10.13811000	   13.51748000	    3.37785000
ghost-Li	   11.82780000	   15.20716000	    5.07028000
ghost-Li	   10.13811000	   16.89685000	    3.37785000
ghost-Li	   11.82780000	   18.58653000	    5.07028000
ghost-Li	   13.51748000	   10.13811000	    3.37785000
ghost-Li	   15.20716000	   11.82780000	    5.07028000
ghost-Li	   13.51748000	   13.51748000	    3.37785000
ghost-Li	   15.20716000	   15.20716000	    5.07029000
ghost-Li	   13.51748000	   16.89685000	    3.37785000
ghost-Li	   15.20716000	   18.58653000	    5.07028000
ghost-Li	   16.89685000	   10.13811000	    3.37785000
ghost-Li	   18.58653000	   11.82780000	    5.07028000
ghost-Li	   16.89685000	   13.51748000	    3.37785000
ghost-Li	   18.58653000	   15.20716000	    5.07028000
ghost-Li	   16.89685000	   16.89685000	    3.37785000
ghost-Li	   18.58653000	   18.58653000	    5.07028000
ghost-Li	   10.13811000	   10.13811000	    6.71042000
ghost-Li	   11.82779000	   11.82779000	    8.47499000
ghost-Li	   10.13811000	   13.51748000	    6.71042000
ghost-Li	   11.82779000	   15.20716000	    8.47499000
ghost-Li	   10.13811000	   16.89685000	    6.71042000
ghost-Li	   11.82779000	   18.58653000	    8.47499000
ghost-Li	   13.51748000	   10.13811000	    6.71042000
ghost-Li	   15.20716000	   11.82779000	    8.47499000
ghost-Li	   13.51748000	   13.51748000	    6.71042000
ghost-Li	   15.20716000	   15.20716000	    8.47500000
ghost-Li	   13.51748000	   16.89685000	    6.71042000
ghost-Li	   15.20716000	   18.58653000	    8.47499000
ghost-Li	   16.89685000	   10.13811000	    6.71042000
ghost-Li	   18.58653000	   11.82779000	    8.47499000
ghost-Li	   16.89685000	   13.51748000	    6.71042000
ghost-Li	   18.58653000	   15.20716000	    8.47499000
ghost-Li	   16.89685000	   16.89685000	    6.71042000
ghost-Li	   18.58653000	   18.58653000	    8.47499000
