11

Li            5.0256565076        5.0397148196        9.0556801972
C             4.5776378717        4.3972860925       14.2726295712
O             4.5511715990        3.9949486199       12.8771179624
C             5.0306316379        5.0143598947       12.1264352263
O             5.5278200822        6.0179352240       12.8879687835
C             5.5492062025        5.5802880196       14.2729849489
O             5.0174331437        5.0274385119       10.9142893767
H             4.9161328835        3.5424276350       14.8670049028
H             3.5564987579        4.6802931504       14.5632560404
H             5.2286019568        6.4171634061       14.9027215017
H             6.5805535390        5.2935742458       14.5224121393
