54
From Garvit: Li_0001_Opt_BCC_Li_Opt_Li_BCC_UnitCell_0_vc-relax_0P1-001-surface_0_relax_0
 Li        0.00000        0.00000       -0.02625
 Li        1.68968        1.68968        1.73797
 Li        0.00000        3.37937       -0.02625
 Li        1.68968        5.06905        1.73797
 Li       -0.00000        6.75873       -0.02625
 Li        1.68968        8.44842        1.73797
 Li        3.37937        0.00000       -0.02625
 Li        5.06905        1.68968        1.73797
 Li        3.37937        3.37937       -0.02625
 Li        5.06905        5.06905        1.73797
 Li        3.37937        6.75874       -0.02625
 Li        5.06905        8.44842        1.73797
 Li        6.75873       -0.00000       -0.02625
 Li        8.44842        1.68968        1.73797
 Li        6.75874        3.37937       -0.02625
 Li        8.44842        5.06905        1.73797
 Li        6.75874        6.75874       -0.02625
 Li        8.44842        8.44842        1.73797
 Li        0.00000        0.00000        3.37786
 Li        1.68969        1.68969        5.07028
 Li        0.00000        3.37937        3.37785
 Li        1.68969        5.06905        5.07028
 Li        0.00000        6.75874        3.37785
 Li        1.68969        8.44842        5.07028
 Li        3.37937        0.00000        3.37785
 Li        5.06905        1.68969        5.07028
 Li        3.37937        3.37937        3.37785
 Li        5.06905        5.06905        5.07029
 Li        3.37937        6.75874        3.37785
 Li        5.06905        8.44842        5.07028
 Li        6.75874       -0.00000        3.37785
 Li        8.44842        1.68969        5.07028
 Li        6.75874        3.37937        3.37785
 Li        8.44842        5.06905        5.07028
 Li        6.75874        6.75874        3.37785
 Li        8.44842        8.44842        5.07028
 Li        0.00000        0.00000        6.71042
 Li        1.68968        1.68968        8.47499
 Li       -0.00000        3.37937        6.71042
 Li        1.68968        5.06905        8.47499
 Li        0.00000        6.75874        6.71042
 Li        1.68968        8.44842        8.47499
 Li        3.37937        0.00000        6.71042
 Li        5.06905        1.68968        8.47499
 Li        3.37937        3.37937        6.71042
 Li        5.06905        5.06905        8.47500
 Li        3.37937        6.75874        6.71042
 Li        5.06905        8.44842        8.47499
 Li        6.75874       -0.00000        6.71042
 Li        8.44842        1.68968        8.47499
 Li        6.75874        3.37937        6.71042
 Li        8.44842        5.06905        8.47499
 Li        6.75874        6.75874        6.71042
 Li        8.44842        8.44842        8.47499

