64

Li    0.0000000000    0.0000000000   -0.0262487714
Li    1.6896875573    1.6896875573    1.7379753825
Li    0.0000000000    3.3793649765   -0.0262487714
Li    1.6896875573    5.0690525338    1.7379753825
Li    0.0000000000    6.7587299531   -0.0262487714
Li    1.6896875573    8.4484175104    1.7379753825
Li    3.3793649765    0.0000000000   -0.0262487714
Li    5.0690525338    1.6896875573    1.7379753825
Li    3.3793649765    3.3793649765   -0.0262487714
Li    5.0690525338    5.0690525338    1.7379753825
Li    3.3793649765    6.7587400912   -0.0262487714
Li    5.0690525338    8.4484175104    1.7379753825
Li    6.7587299531    0.0000000000   -0.0262487714
Li    8.4484175104    1.6896875573    1.7379753825
Li    6.7587400912    3.3793649765   -0.0262487714
Li    8.4484175104    5.0690525338    1.7379753825
Li    6.7587400912    6.7587400912   -0.0262487714
Li    8.4484175104    8.4484175104    1.7379753825
Li    0.0017234779   -0.0104978711    3.4448243487
Li    1.6888359565    1.7398103488    5.0963095277
Li   -0.0058444808    3.3891888003    3.3975061618
Li    1.7031915133    5.0914476079    5.0642528389
Li   -0.0084803881    6.7735620008    3.4075380197
Li    1.7283137376    8.3992983913    5.1385992144
Li    3.3713761497    0.0029096362    3.3975815893
Li    5.0580121374    1.7554635830    5.0759943869
Li    3.3718729169    3.3871409031    3.3460897472
Li    5.0633549188    5.0807620452    5.0064753716
Li    3.3751678010    6.7644275681    3.3562221751
Li    5.0533486091    8.4204160642    5.0457982432
Li    6.7530120618    0.0088302895    3.3803841186
Li    8.3903768589    1.7339201097    5.1251731189
Li    6.7617612465    3.3796589816    3.3668574531
Li    8.3898699536    5.0748109775    5.0724492942
Li    6.7582636002    6.7625824330    3.3534062150
Li    8.3902146492    8.4201727497    5.0966112377
Li   -0.0473397449    0.0010543629    6.6731466212
Li    1.5687906544    1.6845272618    8.4042581009
Li   -0.1089895618    3.4311504172    6.7564437271
Li    1.6196028370    5.0988889771    8.4826272766
Li    -0.057386607    6.6843872286    6.7278064184
Li    1.7230013706    8.4544800972    8.4188910365
Li    3.4050447967    0.0507310778    6.6926320595
Li    4.9091239264    1.6696952141    8.6039147014
Li    3.3678886416    3.4529270669    6.7193333956
Li    5.0160403824    5.1418846807    8.8203162077
Li    3.4700199120    6.6895069717    6.7703475301
Li    5.0734321952    8.4734484918    8.4410415799
Li    6.6731947606    0.0082220032    6.6522532029
Li    8.2297588603    1.6143310223    8.5154382404
Li    6.6513978347    3.4755857317    6.7660733049
Li    8.2281975921    4.9807901911    8.7964056892
Li    6.7002026725    6.7136153855    6.7457330216
Li    8.4722015049    8.4189359008    8.3695111645
C     6.5258272653    0.8748272244   11.1921591832
O     6.1668977935    1.7333523758   10.0785475283
C     6.1631568328    3.0846908146   10.6250449303
O     7.2086185035    3.1230838185   11.5389748421
C     7.3879413060    1.7931570576   12.0783066313
O     6.0650098376    4.0160278367    9.7635874181
H     7.0705273744    0.0071424318   10.7801741616
H     5.6075582607    0.5326256259   11.6988308636
H     7.0625081333    1.7693629250   13.1321042763
H     8.4635739774    1.5639547783   12.0157772313
