110
Properties=species:S:1:pos:R:3 pbc="T T T"
Li       0.00000000       0.00001000       1.72419025
Li       1.68969000       1.68969000       0.03176025
Li       1.68969000       1.68969000       3.36433025
Li       0.00000000       0.00000000       5.12890025
Li       0.00000000       3.37938000       1.72419025
Li       1.68969000       5.06906000       0.03176025
Li       1.68969000       5.06906000       3.36433025
Li       0.00000000       3.37937000       5.12890025
Li       0.00000000       6.75875000       1.72419025
Li       1.68969000       8.44843000       0.03176025
Li       1.68969000       8.44843000       3.36433025
Li       0.00000000       6.75874000       5.12890025
Li       0.00000000      10.13812000       1.72419025
Li       1.68969000      11.82780000       0.03176025
Li       1.68969000      11.82780000       3.36433025
Li       0.00000000      10.13811000       5.12890025
Li       0.00000000      13.51749000       1.72419025
Li       1.68969000      15.20717000       0.03176025
Li       1.68969000      15.20717000       3.36433025
Li       0.00000000      13.51748000       5.12890025
Li       3.37937000       0.00001000       1.72419025
Li       5.06906000       1.68969000       0.03176025
Li       5.06906000       1.68969000       3.36433025
Li       3.37937000       0.00000000       5.12890025
Li       3.37937000      13.51749000       1.72419025
Li       5.06906000      15.20717000       0.03176025
Li       5.06906000      15.20717000       3.36433025
Li       3.37937000      13.51748000       5.12890025
Li       6.75874000       0.00001000       1.72419025
Li       8.44843000       1.68969000       0.03176025
Li       8.44843000       1.68969000       3.36433025
Li       6.75874000       0.00000000       5.12890025
Li       6.75874000      13.51749000       1.72419025
Li       8.44843000      15.20717000       0.03176025
Li       8.44843000      15.20717000       3.36433025
Li       6.75874000      13.51748000       5.12890025
Li      10.13811000       0.00001000       1.72419025
Li      11.82780000       1.68969000       0.03176025
Li      11.82780000       1.68969000       3.36433025
Li      10.13811000       0.00000000       5.12890025
Li      10.13811000      13.51749000       1.72419025
Li      11.82780000      15.20717000       0.03176025
Li      11.82780000      15.20717000       3.36433025
Li      10.13811000      13.51748000       5.12890025
Li      13.51748000       0.00001000       1.72419025
Li      15.20717000       1.68969000       0.03176025
Li      15.20717000       1.68969000       3.36433025
Li      13.51748000       0.00000000       5.12890025
Li      13.51748000       3.37938000       1.72419025
Li      15.20717000       5.06906000       0.03176025
Li      15.20717000       5.06906000       3.36433025
Li      13.51748000       3.37937000       5.12890025
Li      13.51748000       6.75875000       1.72419025
Li      15.20717000       8.44843000       0.03176025
Li      15.20717000       8.44843000       3.36433025
Li      13.51748000       6.75874000       5.12890025
Li      13.51748000      10.13812000       1.72419025
Li      15.20717000      11.82780000       0.03176025
Li      15.20717000      11.82780000       3.36433025
Li      13.51748000      10.13811000       5.12890025
Li      13.51748000      13.51749000       1.72419025
Li      15.20717000      15.20717000       0.03176025
Li      15.20717000      15.20717000       3.36433025
Li      13.51748000      13.51748000       5.12890025
Li      11.82952348       5.05856213       0.09873460
Li       3.37852596       6.80887035       1.75021978
Li      11.82195552       8.45824880       0.05141641
Li       3.39288151      10.16050761       1.71816309
Li      11.81931961      11.84262200       0.06144827
Li       3.41800374       3.33024839       1.79250946
Li       5.06106615       5.07196964       0.05149184
Li       6.74770214       6.82452358       1.72990464
Li       5.06156292       8.45620090       0.00000000
Li       6.75304492      10.14982205       1.66038562
Li       5.06485780      11.83348757       0.01013243
Li       6.74303861       3.35136606       1.69970849
Li       8.44270206       5.07789029       0.03429437
Li      10.08006686       6.80298011       1.77908337
Li       8.45145125       8.44871898       0.02076770
Li      10.07955995      10.14387098       1.72635954
Li       8.44795360      11.83164243       0.00731647
Li      10.07990465       3.35112275       1.75052149
Li      11.78046026       5.07011436       3.32705687
Li       3.25848065       6.75358726       5.05816835
Li      11.71881044       8.50021042       3.41035398
Li       3.30929284      10.16794898       5.13653753
Li      11.77041339      11.75344723       3.38171667
Li       3.41269137       3.38543010       5.07280129
Li       5.09473480       5.11979108       3.34654231
Li       6.59881393       6.73875521       5.25782495
Li       5.05757864       8.52198707       3.37324365
Li       6.70573038      10.21094468       5.47422646
Li       5.15970991      11.75856697       3.42425778
Li       6.76312220       3.40439849       5.09495183
Li       8.36288476       5.07728200       3.30616345
Li       9.91944886       6.68339102       5.16934849
Li       8.34108783       8.54464573       3.41998355
Li       9.91788759      10.04985019       5.45031594
Li       8.38989267      11.78267539       3.39964327
Li      10.16189150       3.34988590       5.02342141
C        8.21551727       5.94388722       7.84606943
O        7.85658779       6.80241238       6.73245778
C        7.85284683       8.15375081       7.27895518
O        8.89830850       8.19214382       8.19288509
C        9.07763131       6.86221706       8.73221688
O        7.75469984       9.08508784       6.41749767
H        8.76021737       5.07620243       7.43408441
H        7.29724826       5.60168563       8.35274111
H        8.75219813       6.83842293       9.78601453
H       10.15326398       6.63301478       8.66968748
