10

C   14.6456380000   14.4652860000   17.2794300000
C   15.0986320000   15.0823600000   15.1332370000
C   15.6172060000   15.6482880000   17.2797850000
H   14.9841330000   13.6104270000   17.8738060000
H   13.6244990000   14.7482930000   17.5700590000
H   15.2966020000   16.4851650000   17.9095210000
H   16.6485540000   15.3615750000   17.5292150000
O   14.6191720000   14.0629490000   15.8839180000
O   15.5958210000   16.0859360000   15.8947700000
O   15.0854330000   15.0954390000   13.9210900000
