521
Li54
Li    0.000000    0.000000    3.006800
Li    0.000000   30.204000    3.006800
Li   30.204000    0.000000    3.006800
Li   30.204000   30.204000    3.006800
Li    0.000000   10.068000    3.006800
Li   30.204000   10.068000    3.006800
Li    0.000000   20.136000    3.006800
Li   30.204000   20.136000    3.006800
Li   10.068000    0.000000    3.006800
Li   10.068000   30.204000    3.006800
Li   10.068000   10.068000    3.006800
Li   10.068000   20.136000    3.006800
Li   20.136000    0.000000    3.006800
Li   20.136000   30.204000    3.006800
Li   20.136000   10.068000    3.006800
Li   20.136000   20.136000    3.006800
Li    1.678000    1.678000    4.684801
Li    1.678000   11.746000    4.684801
Li    1.678000   21.814000    4.684801
Li   11.746000    1.678000    4.684801
Li   11.746000   11.746000    4.684801
Li   11.746000   21.814000    4.684801
Li   21.814000    1.678000    4.684801
Li   21.814000   11.746000    4.684801
Li   21.814000   21.814000    4.684801
Li   10.067068    0.000633    6.478443
Li   10.067068   10.068633    6.478443
Li   10.067068   20.136633    6.478443
Li   20.135068    0.000633    6.478443
Li   20.135068   10.068633    6.478443
Li   20.135068   20.136633    6.478443
Li   30.203068    0.000633    6.478443
Li   30.203068   10.068633    6.478443
Li   30.203068   20.136633    6.478443
Li    1.667797    1.667205    8.337905
Li    1.667797   11.735206    8.337905
Li    1.667797   21.803206    8.337905
Li   11.735797    1.667205    8.337905
Li   11.735797   11.735206    8.337905
Li   11.735797   21.803206    8.337905
Li   21.803797    1.667205    8.337905
Li   21.803797   11.735206    8.337905
Li   21.803797   21.803206    8.337905
Li   10.067613    0.000549   10.186786
Li   10.067613   30.204550   10.186786
Li   10.067613   10.068549   10.186786
Li   10.067613   20.136549   10.186786
Li   20.135614    0.000549   10.186786
Li   20.135614   30.204550   10.186786
Li   20.135614   10.068549   10.186786
Li   20.135614   20.136549   10.186786
Li   -0.000387    0.000549   10.186786
Li   -0.000387   30.204550   10.186786
Li   30.203614    0.000549   10.186786
Li   30.203614   30.204550   10.186786
Li   -0.000387   10.068549   10.186786
Li   30.203614   10.068549   10.186786
Li   -0.000387   20.136549   10.186786
Li   30.203614   20.136549   10.186786
Li    1.651147    1.658379   12.081761
Li    1.651147   11.726380   12.081761
Li    1.651147   21.794380   12.081761
Li   11.719147    1.658379   12.081761
Li   11.719147   11.726380   12.081761
Li   11.719147   21.794380   12.081761
Li   21.787147    1.658379   12.081761
Li   21.787147   11.726380   12.081761
Li   21.787147   21.794380   12.081761
Li    0.000000    3.356000    3.006800
Li   30.204000    3.356000    3.006800
Li    0.000000   13.424000    3.006800
Li   30.204000   13.424000    3.006800
Li    0.000000   23.492000    3.006800
Li   30.204000   23.492000    3.006800
Li   10.068000    3.356000    3.006800
Li   10.068000   13.424000    3.006800
Li   10.068000   23.492000    3.006800
Li   20.136000    3.356000    3.006800
Li   20.136000   13.424000    3.006800
Li   20.136000   23.492000    3.006800
Li    1.678000    5.034000    4.684801
Li    1.678000   15.102000    4.684801
Li    1.678000   25.170000    4.684801
Li   11.746000    5.034000    4.684801
Li   11.746000   15.102000    4.684801
Li   11.746000   25.170000    4.684801
Li   21.814000    5.034000    4.684801
Li   21.814000   15.102000    4.684801
Li   21.814000   25.170000    4.684801
Li   10.067613    3.364416    6.491939
Li   10.067613   13.432416    6.491939
Li   10.067613   23.500416    6.491939
Li   20.135614    3.364416    6.491939
Li   20.135614   13.432416    6.491939
Li   20.135614   23.500416    6.491939
Li   -0.000387    3.364416    6.491939
Li   30.203614    3.364416    6.491939
Li   -0.000387   13.432416    6.491939
Li   30.203614   13.432416    6.491939
Li   -0.000387   23.500416    6.491939
Li   30.203614   23.500416    6.491939
Li    1.664613    5.033989    8.398767
Li    1.664613   15.101989    8.398767
Li    1.664613   25.169989    8.398767
Li   11.732613    5.033989    8.398767
Li   11.732613   15.101989    8.398767
Li   11.732613   25.169989    8.398767
Li   21.800613    5.033989    8.398767
Li   21.800613   15.101989    8.398767
Li   21.800613   25.169989    8.398767
Li   10.067270    3.308022   10.174470
Li   10.067270   13.376022   10.174470
Li   10.067270   23.444022   10.174470
Li   20.135271    3.308022   10.174470
Li   20.135271   13.376022   10.174470
Li   20.135271   23.444022   10.174470
Li   30.203271    3.308022   10.174470
Li   30.203271   13.376022   10.174470
Li   30.203271   23.444022   10.174470
Li    1.646603    5.033997   12.009805
Li    1.646603   15.101997   12.009805
Li    1.646603   25.169997   12.009805
Li   11.714603    5.033997   12.009805
Li   11.714603   15.101997   12.009805
Li   11.714603   25.169997   12.009805
Li   21.782604    5.033997   12.009805
Li   21.782604   15.101997   12.009805
Li   21.782604   25.169997   12.009805
Li    0.000000    6.712000    3.006800
Li   30.204000    6.712000    3.006800
Li    0.000000   16.780000    3.006800
Li   30.204000   16.780000    3.006800
Li    0.000000   26.848000    3.006800
Li   30.204000   26.848000    3.006800
Li   10.068000    6.712000    3.006800
Li   10.068000   16.780000    3.006800
Li   10.068000   26.848000    3.006800
Li   20.136000    6.712000    3.006800
Li   20.136000   16.780000    3.006800
Li   20.136000   26.848000    3.006800
Li    1.678000    8.390001    4.684801
Li    1.678000   18.458001    4.684801
Li    1.678000   28.526001    4.684801
Li   11.746000    8.390001    4.684801
Li   11.746000   18.458001    4.684801
Li   11.746000   28.526001    4.684801
Li   21.814000    8.390001    4.684801
Li   21.814000   18.458001    4.684801
Li   21.814000   28.526001    4.684801
Li   10.067577    6.703920    6.492277
Li   10.067577   16.771920    6.492277
Li   10.067577   26.839920    6.492277
Li   20.135578    6.703920    6.492277
Li   20.135578   16.771920    6.492277
Li   20.135578   26.839920    6.492277
Li   -0.000423    6.703920    6.492277
Li   30.203578    6.703920    6.492277
Li   -0.000423   16.771920    6.492277
Li   30.203578   16.771920    6.492277
Li   -0.000423   26.839920    6.492277
Li   30.203578   26.839920    6.492277
Li    1.668678    8.401720    8.339303
Li    1.668678   18.469720    8.339303
Li    1.668678   28.537720    8.339303
Li   11.736679    8.401720    8.339303
Li   11.736679   18.469720    8.339303
Li   11.736679   28.537720    8.339303
Li   21.804679    8.401720    8.339303
Li   21.804679   18.469720    8.339303
Li   21.804679   28.537720    8.339303
Li   10.066259    6.760871   10.173788
Li   10.066259   16.828871   10.173788
Li   10.066259   26.896871   10.173788
Li   20.134259    6.760871   10.173788
Li   20.134259   16.828871   10.173788
Li   20.134259   26.896871   10.173788
Li   30.202259    6.760871   10.173788
Li   30.202259   16.828871   10.173788
Li   30.202259   26.896871   10.173788
Li    1.657161    8.406629   12.076636
Li    1.657161   18.474629   12.076636
Li    1.657161   28.542629   12.076636
Li   11.725161    8.406629   12.076636
Li   11.725161   18.474629   12.076636
Li   11.725161   28.542629   12.076636
Li   21.793161    8.406629   12.076636
Li   21.793161   18.474629   12.076636
Li   21.793161   28.542629   12.076636
Li    3.356000    0.000000    3.006800
Li    3.356000   30.204000    3.006800
Li    3.356000   10.068000    3.006800
Li    3.356000   20.136000    3.006800
Li   13.424000    0.000000    3.006800
Li   13.424000   30.204000    3.006800
Li   13.424000   10.068000    3.006800
Li   13.424000   20.136000    3.006800
Li   23.492000    0.000000    3.006800
Li   23.492000   30.204000    3.006800
Li   23.492000   10.068000    3.006800
Li   23.492000   20.136000    3.006800
Li    5.034000    1.678000    4.684801
Li    5.034000   11.746000    4.684801
Li    5.034000   21.814000    4.684801
Li   15.102000    1.678000    4.684801
Li   15.102000   11.746000    4.684801
Li   15.102000   21.814000    4.684801
Li   25.170000    1.678000    4.684801
Li   25.170000   11.746000    4.684801
Li   25.170000   21.814000    4.684801
Li    3.371290    0.000142    6.496648
Li    3.371290   30.204143    6.496648
Li    3.371290   10.068143    6.496648
Li    3.371290   20.136143    6.496648
Li   13.439290    0.000142    6.496648
Li   13.439290   30.204143    6.496648
Li   13.439290   10.068143    6.496648
Li   13.439290   20.136143    6.496648
Li   23.507290    0.000142    6.496648
Li   23.507290   30.204143    6.496648
Li   23.507290   10.068143    6.496648
Li   23.507290   20.136143    6.496648
Li    5.034416    1.668091    8.413954
Li    5.034416   11.736091    8.413954
Li    5.034416   21.804091    8.413954
Li   15.102416    1.668091    8.413954
Li   15.102416   11.736091    8.413954
Li   15.102416   21.804091    8.413954
Li   25.170416    1.668091    8.413954
Li   25.170416   11.736091    8.413954
Li   25.170416   21.804091    8.413954
Li    3.303692    0.001744   10.180380
Li    3.303692   10.069744   10.180380
Li    3.303692   20.137744   10.180380
Li   13.371692    0.001744   10.180380
Li   13.371692   10.069744   10.180380
Li   13.371692   20.137744   10.180380
Li   23.439692    0.001744   10.180380
Li   23.439692   10.069744   10.180380
Li   23.439692   20.137744   10.180380
Li    5.031407    1.657996   12.005650
Li    5.031407   11.725996   12.005650
Li    5.031407   21.793996   12.005650
Li   15.099408    1.657996   12.005650
Li   15.099408   11.725996   12.005650
Li   15.099408   21.793996   12.005650
Li   25.167408    1.657996   12.005650
Li   25.167408   11.725996   12.005650
Li   25.167408   21.793996   12.005650
Li    3.356000    3.356000    3.006800
Li    3.356000   13.424000    3.006800
Li    3.356000   23.492000    3.006800
Li   13.424000    3.356000    3.006800
Li   13.424000   13.424000    3.006800
Li   13.424000   23.492000    3.006800
Li   23.492000    3.356000    3.006800
Li   23.492000   13.424000    3.006800
Li   23.492000   23.492000    3.006800
Li    5.034000    5.034000    4.684801
Li    5.034000   15.102000    4.684801
Li    5.034000   25.170000    4.684801
Li   15.102000    5.034000    4.684801
Li   15.102000   15.102000    4.684801
Li   15.102000   25.170000    4.684801
Li   25.170000    5.034000    4.684801
Li   25.170000   15.102000    4.684801
Li   25.170000   25.170000    4.684801
Li    3.369153    3.365602    6.531278
Li    3.369153   13.433603    6.531278
Li    3.369153   23.501603    6.531278
Li   13.437153    3.365602    6.531278
Li   13.437153   13.433603    6.531278
Li   13.437153   23.501603    6.531278
Li   23.505153    3.365602    6.531278
Li   23.505153   13.433603    6.531278
Li   23.505153   23.501603    6.531278
Li    5.033484    5.034594    8.457321
Li    5.033484   15.102594    8.457321
Li    5.033484   25.170595    8.457321
Li   15.101484    5.034594    8.457321
Li   15.101484   15.102594    8.457321
Li   15.101484   25.170595    8.457321
Li   25.169484    5.034594    8.457321
Li   25.169484   15.102594    8.457321
Li   25.169484   25.170595    8.457321
Li    3.312398    3.321757   10.187069
Li    3.312398   13.389757   10.187069
Li    3.312398   23.457757   10.187069
Li   13.380398    3.321757   10.187069
Li   13.380398   13.389757   10.187069
Li   13.380398   23.457757   10.187069
Li   23.448398    3.321757   10.187069
Li   23.448398   13.389757   10.187069
Li   23.448398   23.457757   10.187069
Li    5.031139    5.035918   11.956035
Li    5.031139   15.103918   11.956035
Li    5.031139   25.171918   11.956035
Li   15.099139    5.035918   11.956035
Li   15.099139   15.103918   11.956035
Li   15.099139   25.171918   11.956035
Li   25.167139    5.035918   11.956035
Li   25.167139   15.103918   11.956035
Li   25.167139   25.171918   11.956035
Li    3.356000    6.712000    3.006800
Li    3.356000   16.780000    3.006800
Li    3.356000   26.848000    3.006800
Li   13.424000    6.712000    3.006800
Li   13.424000   16.780000    3.006800
Li   13.424000   26.848000    3.006800
Li   23.492000    6.712000    3.006800
Li   23.492000   16.780000    3.006800
Li   23.492000   26.848000    3.006800
Li    5.034000    8.390001    4.684801
Li    5.034000   18.458001    4.684801
Li    5.034000   28.526001    4.684801
Li   15.102000    8.390001    4.684801
Li   15.102000   18.458001    4.684801
Li   15.102000   28.526001    4.684801
Li   25.170000    8.390001    4.684801
Li   25.170000   18.458001    4.684801
Li   25.170000   28.526001    4.684801
Li    3.369640    6.702678    6.529621
Li    3.369640   16.770678    6.529621
Li    3.369640   26.838679    6.529621
Li   13.437640    6.702678    6.529621
Li   13.437640   16.770678    6.529621
Li   13.437640   26.838679    6.529621
Li   23.505640    6.702678    6.529621
Li   23.505640   16.770678    6.529621
Li   23.505640   26.838679    6.529621
Li    5.035448    8.401239    8.414083
Li    5.035448   18.469239    8.414083
Li    5.035448   28.537239    8.414083
Li   15.103448    8.401239    8.414083
Li   15.103448   18.469239    8.414083
Li   15.103448   28.537239    8.414083
Li   25.171448    8.401239    8.414083
Li   25.171448   18.469239    8.414083
Li   25.171448   28.537239    8.414083
Li    3.315364    6.745270   10.183126
Li    3.315364   16.813270   10.183126
Li    3.315364   26.881270   10.183126
Li   13.383364    6.745270   10.183126
Li   13.383364   16.813270   10.183126
Li   13.383364   26.881270   10.183126
Li   23.451364    6.745270   10.183126
Li   23.451364   16.813270   10.183126
Li   23.451364   26.881270   10.183126
Li    5.035485    8.412185   12.003582
Li    5.035485   18.480185   12.003582
Li    5.035485   28.548185   12.003582
Li   15.103486    8.412185   12.003582
Li   15.103486   18.480185   12.003582
Li   15.103486   28.548185   12.003582
Li   25.171486    8.412185   12.003582
Li   25.171486   18.480185   12.003582
Li   25.171486   28.548185   12.003582
Li    6.712000    0.000000    3.006800
Li    6.712000   30.204000    3.006800
Li    6.712000   10.068000    3.006800
Li    6.712000   20.136000    3.006800
Li   16.780000    0.000000    3.006800
Li   16.780000   30.204000    3.006800
Li   16.780000   10.068000    3.006800
Li   16.780000   20.136000    3.006800
Li   26.848000    0.000000    3.006800
Li   26.848000   30.204000    3.006800
Li   26.848000   10.068000    3.006800
Li   26.848000   20.136000    3.006800
Li    8.390001    1.678000    4.684801
Li    8.390001   11.746000    4.684801
Li    8.390001   21.814000    4.684801
Li   18.458001    1.678000    4.684801
Li   18.458001   11.746000    4.684801
Li   18.458001   21.814000    4.684801
Li   28.526001    1.678000    4.684801
Li   28.526001   11.746000    4.684801
Li   28.526001   21.814000    4.684801
Li    6.697316    0.000607    6.496062
Li    6.697316   10.068607    6.496062
Li    6.697316   20.136607    6.496062
Li   16.765316    0.000607    6.496062
Li   16.765316   10.068607    6.496062
Li   16.765316   20.136607    6.496062
Li   26.833316    0.000607    6.496062
Li   26.833316   10.068607    6.496062
Li   26.833316   20.136607    6.496062
Li    8.397495    1.668693    8.339855
Li    8.397495   11.736694    8.339855
Li    8.397495   21.804694    8.339855
Li   18.465495    1.668693    8.339855
Li   18.465495   11.736694    8.339855
Li   18.465495   21.804694    8.339855
Li   28.533495    1.668693    8.339855
Li   28.533495   11.736694    8.339855
Li   28.533495   21.804694    8.339855
Li    6.765108    0.000656   10.181974
Li    6.765108   10.068657   10.181974
Li    6.765108   20.136657   10.181974
Li   16.833108    0.000656   10.181974
Li   16.833108   10.068657   10.181974
Li   16.833108   20.136657   10.181974
Li   26.901108    0.000656   10.181974
Li   26.901108   10.068657   10.181974
Li   26.901108   20.136657   10.181974
Li    8.411506    1.662202   12.078431
Li    8.411506   11.730202   12.078431
Li    8.411506   21.798202   12.078431
Li   18.479506    1.662202   12.078431
Li   18.479506   11.730202   12.078431
Li   18.479506   21.798202   12.078431
Li   28.547506    1.662202   12.078431
Li   28.547506   11.730202   12.078431
Li   28.547506   21.798202   12.078431
Li    6.712000    3.356000    3.006800
Li    6.712000   13.424000    3.006800
Li    6.712000   23.492000    3.006800
Li   16.780000    3.356000    3.006800
Li   16.780000   13.424000    3.006800
Li   16.780000   23.492000    3.006800
Li   26.848000    3.356000    3.006800
Li   26.848000   13.424000    3.006800
Li   26.848000   23.492000    3.006800
Li    8.390001    5.034000    4.684801
Li    8.390001   15.102000    4.684801
Li    8.390001   25.170000    4.684801
Li   18.458001    5.034000    4.684801
Li   18.458001   15.102000    4.684801
Li   18.458001   25.170000    4.684801
Li   28.526001    5.034000    4.684801
Li   28.526001   15.102000    4.684801
Li   28.526001   25.170000    4.684801
Li    6.698125    3.366248    6.528946
Li    6.698125   13.434248    6.528946
Li    6.698125   23.502248    6.528946
Li   16.766125    3.366248    6.528946
Li   16.766125   13.434248    6.528946
Li   16.766125   23.502248    6.528946
Li   26.834125    3.366248    6.528946
Li   26.834125   13.434248    6.528946
Li   26.834125   23.502248    6.528946
Li    8.402303    5.033929    8.399153
Li    8.402303   15.101929    8.399153
Li    8.402303   25.169929    8.399153
Li   18.470303    5.033929    8.399153
Li   18.470303   15.101929    8.399153
Li   18.470303   25.169929    8.399153
Li   28.538303    5.033929    8.399153
Li   28.538303   15.101929    8.399153
Li   28.538303   25.169929    8.399153
Li    6.750383    3.325681   10.186214
Li    6.750383   13.393681   10.186214
Li    6.750383   23.461681   10.186214
Li   16.818384    3.325681   10.186214
Li   16.818384   13.393681   10.186214
Li   16.818384   23.461681   10.186214
Li   26.886384    3.325681   10.186214
Li   26.886384   13.393681   10.186214
Li   26.886384   23.461681   10.186214
Li    8.419144    5.035507   12.012952
Li    8.419144   15.103507   12.012952
Li    8.419144   25.171507   12.012952
Li   18.487144    5.035507   12.012952
Li   18.487144   15.103507   12.012952
Li   18.487144   25.171507   12.012952
Li   28.555144    5.035507   12.012952
Li   28.555144   15.103507   12.012952
Li   28.555144   25.171507   12.012952
Li    6.712000    6.712000    3.006800
Li    6.712000   16.780000    3.006800
Li    6.712000   26.848000    3.006800
Li   16.780000    6.712000    3.006800
Li   16.780000   16.780000    3.006800
Li   16.780000   26.848000    3.006800
Li   26.848000    6.712000    3.006800
Li   26.848000   16.780000    3.006800
Li   26.848000   26.848000    3.006800
Li    8.390001    8.390001    4.684801
Li    8.390001   18.458001    4.684801
Li    8.390001   28.526001    4.684801
Li   18.458001    8.390001    4.684801
Li   18.458001   18.458001    4.684801
Li   18.458001   28.526001    4.684801
Li   28.526001    8.390001    4.684801
Li   28.526001   18.458001    4.684801
Li   28.526001   28.526001    4.684801
Li    6.699042    6.702315    6.530834
Li    6.699042   16.770315    6.530834
Li    6.699042   26.838315    6.530834
Li   16.767042    6.702315    6.530834
Li   16.767042   16.770315    6.530834
Li   16.767042   26.838315    6.530834
Li   26.835042    6.702315    6.530834
Li   26.835042   16.770315    6.530834
Li   26.835042   26.838315    6.530834
Li    8.398801    8.401807    8.338351
Li    8.398801   18.469807    8.338351
Li    8.398801   28.537807    8.338351
Li   18.466801    8.401807    8.338351
Li   18.466801   18.469807    8.338351
Li   18.466801   28.537807    8.338351
Li   28.534802    8.401807    8.338351
Li   28.534802   18.469807    8.338351
Li   28.534802   28.537807    8.338351
Li    6.755274    6.746524   10.187765
Li    6.755274   16.814525   10.187765
Li    6.755274   26.882525   10.187765
Li   16.823274    6.746524   10.187765
Li   16.823274   16.814525   10.187765
Li   16.823274   26.882525   10.187765
Li   26.891274    6.746524   10.187765
Li   26.891274   16.814525   10.187765
Li   26.891274   26.882525   10.187765
Li    8.417106    8.410811   12.082475
Li    8.417106   18.478811   12.082475
Li    8.417106   28.546811   12.082475
Li   18.485106    8.410811   12.082475
Li   18.485106   18.478811   12.082475
Li   18.485106   28.546811   12.082475
Li   28.553106    8.410811   12.082475
Li   28.553106   18.478811   12.082475
Li   28.553106   28.546811   12.082475
