524
C3 H4 Li54 O3
Li    0.000000    0.000000    3.006800
Li    0.000000   30.204000    3.006800
Li   30.204000    0.000000    3.006800
Li   30.204000   30.204000    3.006800
Li    0.000000   10.068000    3.006800
Li   30.204000   10.068000    3.006800
Li    0.000000   20.136000    3.006800
Li   30.204000   20.136000    3.006800
Li   10.068000    0.000000    3.006800
Li   10.068000   30.204000    3.006800
Li   10.068000   10.068000    3.006800
Li   10.068000   20.136000    3.006800
Li   20.136000    0.000000    3.006800
Li   20.136000   30.204000    3.006800
Li   20.136000   10.068000    3.006800
Li   20.136000   20.136000    3.006800
Li    1.678000    1.678000    4.684800
Li    1.678000   11.746000    4.684800
Li    1.678000   21.813999    4.684800
Li   11.746000    1.678000    4.684800
Li   11.746000   11.746000    4.684800
Li   11.746000   21.813999    4.684800
Li   21.813999    1.678000    4.684800
Li   21.813999   11.746000    4.684800
Li   21.813999   21.813999    4.684800
Li   10.066263    0.000847    6.435379
Li   10.066263   10.068847    6.435379
Li   10.066263   20.136847    6.435379
Li   20.134262    0.000847    6.435379
Li   20.134262   10.068847    6.435379
Li   20.134262   20.136847    6.435379
Li   30.202263    0.000847    6.435379
Li   30.202263   10.068847    6.435379
Li   30.202263   20.136847    6.435379
Li    1.658707    1.650541    8.336860
Li    1.658707   11.718541    8.336860
Li    1.658707   21.786543    8.336860
Li   11.726708    1.650541    8.336860
Li   11.726708   11.718541    8.336860
Li   11.726708   21.786543    8.336860
Li   21.794708    1.650541    8.336860
Li   21.794708   11.718541    8.336860
Li   21.794708   21.786543    8.336860
Li   10.066317    0.000928   10.162135
Li   10.066317   10.068929   10.162135
Li   10.066317   20.136929   10.162135
Li   20.134317    0.000928   10.162135
Li   20.134317   10.068929   10.162135
Li   20.134317   20.136929   10.162135
Li   30.202316    0.000928   10.162135
Li   30.202316   10.068929   10.162135
Li   30.202316   20.136929   10.162135
Li    1.617391    1.629198   12.086727
Li    1.617391   11.697199   12.086727
Li    1.617391   21.765200   12.086727
Li   11.685392    1.629198   12.086727
Li   11.685392   11.697199   12.086727
Li   11.685392   21.765200   12.086727
Li   21.753391    1.629198   12.086727
Li   21.753391   11.697199   12.086727
Li   21.753391   21.765200   12.086727
Li    0.000000    3.356000    3.006800
Li   30.204000    3.356000    3.006800
Li    0.000000   13.424000    3.006800
Li   30.204000   13.424000    3.006800
Li    0.000000   23.492001    3.006800
Li   30.204000   23.492001    3.006800
Li   10.068000    3.356000    3.006800
Li   10.068000   13.424000    3.006800
Li   10.068000   23.492001    3.006800
Li   20.136000    3.356000    3.006800
Li   20.136000   13.424000    3.006800
Li   20.136000   23.492001    3.006800
Li    1.678000    5.034000    4.684800
Li    1.678000   15.102000    4.684800
Li    1.678000   25.170000    4.684800
Li   11.746000    5.034000    4.684800
Li   11.746000   15.102000    4.684800
Li   11.746000   25.170000    4.684800
Li   21.813999    5.034000    4.684800
Li   21.813999   15.102000    4.684800
Li   21.813999   25.170000    4.684800
Li    0.000541    3.354683    6.492642
Li   30.204542    3.354683    6.492642
Li    0.000541   13.422683    6.492642
Li   30.204542   13.422683    6.492642
Li    0.000541   23.490683    6.492642
Li   30.204542   23.490683    6.492642
Li   10.068541    3.354683    6.492642
Li   10.068541   13.422683    6.492642
Li   10.068541   23.490683    6.492642
Li   20.136541    3.354683    6.492642
Li   20.136541   13.422683    6.492642
Li   20.136541   23.490683    6.492642
Li    1.648150    5.036187    8.390352
Li    1.648150   15.104187    8.390352
Li    1.648150   25.172188    8.390352
Li   11.716150    5.036187    8.390352
Li   11.716150   15.104187    8.390352
Li   11.716150   25.172188    8.390352
Li   21.784149    5.036187    8.390352
Li   21.784149   15.104187    8.390352
Li   21.784149   25.172188    8.390352
Li    0.001604    3.299276   10.171416
Li    0.001604   13.367276   10.171416
Li    0.001604   23.435276   10.171416
Li   10.069604    3.299276   10.171416
Li   10.069604   13.367276   10.171416
Li   10.069604   23.435276   10.171416
Li   20.137604    3.299276   10.171416
Li   20.137604   13.367276   10.171416
Li   20.137604   23.435276   10.171416
Li    1.591345    5.040539   12.000289
Li    1.591345   15.108540   12.000289
Li    1.591345   25.176540   12.000289
Li   11.659345    5.040539   12.000289
Li   11.659345   15.108540   12.000289
Li   11.659345   25.176540   12.000289
Li   21.727345    5.040539   12.000289
Li   21.727345   15.108540   12.000289
Li   21.727345   25.176540   12.000289
Li    0.000000    6.712000    3.006800
Li   30.204000    6.712000    3.006800
Li    0.000000   16.780001    3.006800
Li   30.204000   16.780001    3.006800
Li    0.000000   26.848000    3.006800
Li   30.204000   26.848000    3.006800
Li   10.068000    6.712000    3.006800
Li   10.068000   16.780001    3.006800
Li   10.068000   26.848000    3.006800
Li   20.136000    6.712000    3.006800
Li   20.136000   16.780001    3.006800
Li   20.136000   26.848000    3.006800
Li    1.678000    8.390001    4.684800
Li    1.678000   18.458000    4.684800
Li    1.678000   28.526001    4.684800
Li   11.746000    8.390001    4.684800
Li   11.746000   18.458000    4.684800
Li   11.746000   28.526001    4.684800
Li   21.813999    8.390001    4.684800
Li   21.813999   18.458000    4.684800
Li   21.813999   28.526001    4.684800
Li   10.067884    6.713060    6.492985
Li   10.067884   16.781059    6.492985
Li   10.067884   26.849060    6.492985
Li   20.135883    6.713060    6.492985
Li   20.135883   16.781059    6.492985
Li   20.135883   26.849060    6.492985
Li   -0.000116    6.713060    6.492985
Li   30.203884    6.713060    6.492985
Li   -0.000116   16.781059    6.492985
Li   30.203884   16.781059    6.492985
Li   -0.000116   26.849060    6.492985
Li   30.203884   26.849060    6.492985
Li    1.661290    8.414429    8.334437
Li    1.661290   18.482430    8.334437
Li    1.661290   28.550428    8.334437
Li   11.729290    8.414429    8.334437
Li   11.729290   18.482430    8.334437
Li   11.729290   28.550428    8.334437
Li   21.797291    8.414429    8.334437
Li   21.797291   18.482430    8.334437
Li   21.797291   28.550428    8.334437
Li   10.065637    6.769270   10.170629
Li   10.065637   16.837271   10.170629
Li   10.065637   26.905272   10.170629
Li   20.133636    6.769270   10.170629
Li   20.133636   16.837271   10.170629
Li   20.133636   26.905272   10.170629
Li   30.201637    6.769270   10.170629
Li   30.201637   16.837271   10.170629
Li   30.201637   26.905272   10.170629
Li    1.634545    8.425659   12.081144
Li    1.634545   18.493658   12.081144
Li    1.634545   28.561659   12.081144
Li   11.702545    8.425659   12.081144
Li   11.702545   18.493658   12.081144
Li   11.702545   28.561659   12.081144
Li   21.770544    8.425659   12.081144
Li   21.770544   18.493658   12.081144
Li   21.770544   28.561659   12.081144
Li    3.356000    0.000000    3.006800
Li    3.356000   30.204000    3.006800
Li    3.356000   10.068000    3.006800
Li    3.356000   20.136000    3.006800
Li   13.424000    0.000000    3.006800
Li   13.424000   30.204000    3.006800
Li   13.424000   10.068000    3.006800
Li   13.424000   20.136000    3.006800
Li   23.492001    0.000000    3.006800
Li   23.492001   30.204000    3.006800
Li   23.492001   10.068000    3.006800
Li   23.492001   20.136000    3.006800
Li    5.034000    1.678000    4.684800
Li    5.034000   11.746000    4.684800
Li    5.034000   21.813999    4.684800
Li   15.102000    1.678000    4.684800
Li   15.102000   11.746000    4.684800
Li   15.102000   21.813999    4.684800
Li   25.170000    1.678000    4.684800
Li   25.170000   11.746000    4.684800
Li   25.170000   21.813999    4.684800
Li    3.368589   10.067228    6.501808
Li    3.368589   20.135227    6.501808
Li    3.368589   30.203228    6.501808
Li   13.436589   10.067228    6.501808
Li   13.436589   20.135227    6.501808
Li   13.436589   30.203228    6.501808
Li   23.504589   10.067228    6.501808
Li   23.504589   20.135227    6.501808
Li   23.504589   30.203228    6.501808
Li    5.036560    1.659827    8.415253
Li    5.036560   11.727828    8.415253
Li    5.036560   21.795828    8.415253
Li   15.104560    1.659827    8.415253
Li   15.104560   11.727828    8.415253
Li   15.104560   21.795828    8.415253
Li   25.172562    1.659827    8.415253
Li   25.172562   11.727828    8.415253
Li   25.172562   21.795828    8.415253
Li    3.304242    0.001904   10.187220
Li    3.304242   10.069904   10.187220
Li    3.304242   20.137903   10.187220
Li   13.372242    0.001904   10.187220
Li   13.372242   10.069904   10.187220
Li   13.372242   20.137903   10.187220
Li   23.440243    0.001904   10.187220
Li   23.440243   10.069904   10.187220
Li   23.440243   20.137903   10.187220
Li    5.038314    1.612694   12.008019
Li    5.038314   11.680694   12.008019
Li    5.038314   21.748693   12.008019
Li   15.106314    1.612694   12.008019
Li   15.106314   11.680694   12.008019
Li   15.106314   21.748693   12.008019
Li   25.174314    1.612694   12.008019
Li   25.174314   11.680694   12.008019
Li   25.174314   21.748693   12.008019
Li    3.356000    3.356000    3.006800
Li    3.356000   13.424000    3.006800
Li    3.356000   23.492001    3.006800
Li   13.424000    3.356000    3.006800
Li   13.424000   13.424000    3.006800
Li   13.424000   23.492001    3.006800
Li   23.492001    3.356000    3.006800
Li   23.492001   13.424000    3.006800
Li   23.492001   23.492001    3.006800
Li    5.034000    5.034000    4.684800
Li    5.034000   15.102000    4.684800
Li    5.034000   25.170000    4.684800
Li   15.102000    5.034000    4.684800
Li   15.102000   15.102000    4.684800
Li   15.102000   25.170000    4.684800
Li   25.170000    5.034000    4.684800
Li   25.170000   15.102000    4.684800
Li   25.170000   25.170000    4.684800
Li    3.366775    3.367435    6.524192
Li    3.366775   13.435436    6.524192
Li    3.366775   23.503435    6.524192
Li   13.434775    3.367435    6.524192
Li   13.434775   13.435436    6.524192
Li   13.434775   23.503435    6.524192
Li   23.502775    3.367435    6.524192
Li   23.502775   13.435436    6.524192
Li   23.502775   23.503435    6.524192
Li    5.033760    5.034828    8.510365
Li    5.033760   15.102829    8.510365
Li    5.033760   25.170830    8.510365
Li   15.101760    5.034828    8.510365
Li   15.101760   15.102829    8.510365
Li   15.101760   25.170830    8.510365
Li   25.169760    5.034828    8.510365
Li   25.169760   15.102829    8.510365
Li   25.169760   25.170830    8.510365
Li    3.291941    3.311831   10.160299
Li    3.291941   13.379831   10.160299
Li    3.291941   23.447832   10.160299
Li   13.359941    3.311831   10.160299
Li   13.359941   13.379831   10.160299
Li   13.359941   23.447832   10.160299
Li   23.427940    3.311831   10.160299
Li   23.427940   13.379831   10.160299
Li   23.427940   23.447832   10.160299
Li    5.025657    5.039715   12.062481
Li    5.025657   15.107715   12.062481
Li    5.025657   25.175714   12.062481
Li   15.093657    5.039715   12.062481
Li   15.093657   15.107715   12.062481
Li   15.093657   25.175714   12.062481
Li   25.161657    5.039715   12.062481
Li   25.161657   15.107715   12.062481
Li   25.161657   25.175714   12.062481
Li    3.356000    6.712000    3.006800
Li    3.356000   16.780001    3.006800
Li    3.356000   26.848000    3.006800
Li   13.424000    6.712000    3.006800
Li   13.424000   16.780001    3.006800
Li   13.424000   26.848000    3.006800
Li   23.492001    6.712000    3.006800
Li   23.492001   16.780001    3.006800
Li   23.492001   26.848000    3.006800
Li    5.034000    8.390001    4.684800
Li    5.034000   18.458000    4.684800
Li    5.034000   28.526001    4.684800
Li   15.102000    8.390001    4.684800
Li   15.102000   18.458000    4.684800
Li   15.102000   28.526001    4.684800
Li   25.170000    8.390001    4.684800
Li   25.170000   18.458000    4.684800
Li   25.170000   28.526001    4.684800
Li    3.367650    6.701329    6.525454
Li    3.367650   16.769329    6.525454
Li    3.367650   26.837330    6.525454
Li   13.435650    6.701329    6.525454
Li   13.435650   16.769329    6.525454
Li   13.435650   26.837330    6.525454
Li   23.503651    6.701329    6.525454
Li   23.503651   16.769329    6.525454
Li   23.503651   26.837330    6.525454
Li    5.035586    8.409223    8.415295
Li    5.035586   18.477222    8.415295
Li    5.035586   28.545223    8.415295
Li   15.103586    8.409223    8.415295
Li   15.103586   18.477222    8.415295
Li   15.103586   28.545223    8.415295
Li   25.171587    8.409223    8.415295
Li   25.171587   18.477222    8.415295
Li   25.171587   28.545223    8.415295
Li    3.298590    6.753486   10.163273
Li    3.298590   16.821486   10.163273
Li    3.298590   26.889486   10.163273
Li   13.366590    6.753486   10.163273
Li   13.366590   16.821486   10.163273
Li   13.366590   26.889486   10.163273
Li   23.434589    6.753486   10.163273
Li   23.434589   16.821486   10.163273
Li   23.434589   26.889486   10.163273
Li    5.031117    8.457293   12.005421
Li    5.031117   18.525293   12.005421
Li    5.031117   28.593292   12.005421
Li   15.099117    8.457293   12.005421
Li   15.099117   18.525293   12.005421
Li   15.099117   28.593292   12.005421
Li   25.167116    8.457293   12.005421
Li   25.167116   18.525293   12.005421
Li   25.167116   28.593292   12.005421
Li    6.712000    0.000000    3.006800
Li    6.712000   30.204000    3.006800
Li    6.712000   10.068000    3.006800
Li    6.712000   20.136000    3.006800
Li   16.780001    0.000000    3.006800
Li   16.780001   30.204000    3.006800
Li   16.780001   10.068000    3.006800
Li   16.780001   20.136000    3.006800
Li   26.848000    0.000000    3.006800
Li   26.848000   30.204000    3.006800
Li   26.848000   10.068000    3.006800
Li   26.848000   20.136000    3.006800
Li    8.390001    1.678000    4.684800
Li    8.390001   11.746000    4.684800
Li    8.390001   21.813999    4.684800
Li   18.458000    1.678000    4.684800
Li   18.458000   11.746000    4.684800
Li   18.458000   21.813999    4.684800
Li   28.526001    1.678000    4.684800
Li   28.526001   11.746000    4.684800
Li   28.526001   21.813999    4.684800
Li    6.701420    0.001280    6.501603
Li    6.701420   10.069280    6.501603
Li    6.701420   20.137280    6.501603
Li   16.769421    0.001280    6.501603
Li   16.769421   10.069280    6.501603
Li   16.769421   20.137280    6.501603
Li   26.837420    0.001280    6.501603
Li   26.837420   10.069280    6.501603
Li   26.837420   20.137280    6.501603
Li    8.403796    1.658250    8.337800
Li    8.403796   11.726250    8.337800
Li    8.403796   21.794250    8.337800
Li   18.471796    1.658250    8.337800
Li   18.471796   11.726250    8.337800
Li   18.471796   21.794250    8.337800
Li   28.539797    1.658250    8.337800
Li   28.539797   11.726250    8.337800
Li   28.539797   21.794250    8.337800
Li    6.766242    0.000565   10.189823
Li    6.766242   30.204565   10.189823
Li    6.766242   10.068566   10.189823
Li    6.766242   20.136566   10.189823
Li   16.834242    0.000565   10.189823
Li   16.834242   30.204565   10.189823
Li   16.834242   10.068566   10.189823
Li   16.834242   20.136566   10.189823
Li   26.902243    0.000565   10.189823
Li   26.902243   30.204565   10.189823
Li   26.902243   10.068566   10.189823
Li   26.902243   20.136566   10.189823
Li    8.433536    1.645049   12.085259
Li    8.433536   11.713049   12.085259
Li    8.433536   21.781050   12.085259
Li   18.501535    1.645049   12.085259
Li   18.501535   11.713049   12.085259
Li   18.501535   21.781050   12.085259
Li   28.569536    1.645049   12.085259
Li   28.569536   11.713049   12.085259
Li   28.569536   21.781050   12.085259
Li    6.712000    3.356000    3.006800
Li    6.712000   13.424000    3.006800
Li    6.712000   23.492001    3.006800
Li   16.780001    3.356000    3.006800
Li   16.780001   13.424000    3.006800
Li   16.780001   23.492001    3.006800
Li   26.848000    3.356000    3.006800
Li   26.848000   13.424000    3.006800
Li   26.848000   23.492001    3.006800
Li    8.390001    5.034000    4.684800
Li    8.390001   15.102000    4.684800
Li    8.390001   25.170000    4.684800
Li   18.458000    5.034000    4.684800
Li   18.458000   15.102000    4.684800
Li   18.458000   25.170000    4.684800
Li   28.526001    5.034000    4.684800
Li   28.526001   15.102000    4.684800
Li   28.526001   25.170000    4.684800
Li    6.700083    3.367990    6.525351
Li    6.700083   13.435990    6.525351
Li    6.700083   23.503990    6.525351
Li   16.768084    3.367990    6.525351
Li   16.768084   13.435990    6.525351
Li   16.768084   23.503990    6.525351
Li   26.836082    3.367990    6.525351
Li   26.836082   13.435990    6.525351
Li   26.836082   23.503990    6.525351
Li    8.419507    5.031126    8.390657
Li    8.419507   15.099126    8.390657
Li    8.419507   25.167126    8.390657
Li   18.487507    5.031126    8.390657
Li   18.487507   15.099126    8.390657
Li   18.487507   25.167126    8.390657
Li   28.555508    5.031126    8.390657
Li   28.555508   15.099126    8.390657
Li   28.555508   25.167126    8.390657
Li    6.765460    3.320627   10.169862
Li    6.765460   13.388628   10.169862
Li    6.765460   23.456629   10.169862
Li   16.833460    3.320627   10.169862
Li   16.833460   13.388628   10.169862
Li   16.833460   23.456629   10.169862
Li   26.901461    3.320627   10.169862
Li   26.901461   13.388628   10.169862
Li   26.901461   23.456629   10.169862
Li    8.474570    5.028718   12.003987
Li    8.474570   15.096718   12.003987
Li    8.474570   25.164719   12.003987
Li   18.542570    5.028718   12.003987
Li   18.542570   15.096718   12.003987
Li   18.542570   25.164719   12.003987
Li   28.610571    5.028718   12.003987
Li   28.610571   15.096718   12.003987
Li   28.610571   25.164719   12.003987
Li    6.712000    6.712000    3.006800
Li    6.712000   16.780001    3.006800
Li    6.712000   26.848000    3.006800
Li   16.780001    6.712000    3.006800
Li   16.780001   16.780001    3.006800
Li   16.780001   26.848000    3.006800
Li   26.848000    6.712000    3.006800
Li   26.848000   16.780001    3.006800
Li   26.848000   26.848000    3.006800
Li    8.390001    8.390001    4.684800
Li    8.390001   18.458000    4.684800
Li    8.390001   28.526001    4.684800
Li   18.458000    8.390001    4.684800
Li   18.458000   18.458000    4.684800
Li   18.458000   28.526001    4.684800
Li   28.526001    8.390001    4.684800
Li   28.526001   18.458000    4.684800
Li   28.526001   28.526001    4.684800
Li    6.701451    6.700287    6.524389
Li    6.701451   16.768288    6.524389
Li    6.701451   26.836287    6.524389
Li   16.769451    6.700287    6.524389
Li   16.769451   16.768288    6.524389
Li   16.769451   26.836287    6.524389
Li   26.837452    6.700287    6.524389
Li   26.837452   16.768288    6.524389
Li   26.837452   26.836287    6.524389
Li    8.407977    8.416454    8.338504
Li    8.407977   18.484453    8.338504
Li    8.407977   28.552454    8.338504
Li   18.475979    8.416454    8.338504
Li   18.475979   18.484453    8.338504
Li   18.475979   28.552454    8.338504
Li   28.543978    8.416454    8.338504
Li   28.543978   18.484453    8.338504
Li   28.543978   28.552454    8.338504
Li    6.775889    6.753912   10.163587
Li    6.775889   16.821913   10.163587
Li    6.775889   26.889914   10.163587
Li   16.843889    6.753912   10.163587
Li   16.843889   16.821913   10.163587
Li   16.843889   26.889914   10.163587
Li   26.911888    6.753912   10.163587
Li   26.911888   16.821913   10.163587
Li   26.911888   26.889914   10.163587
Li    8.449844    8.438750   12.089105
Li    8.449844   18.506750   12.089105
Li    8.449844   28.574751   12.089105
Li   18.517843    8.438750   12.089105
Li   18.517843   18.506750   12.089105
Li   18.517843   28.574751   12.089105
Li   28.585846    8.438750   12.089105
Li   28.585846   18.506750   12.089105
Li   28.585846   28.574751   12.089105
 C   14.645638   14.465286   17.279430
 C   15.098632   15.082360   15.133237
 C   15.617206   15.648288   17.279785
 H   14.984133   13.610427   17.873806
 H   13.624499   14.748293   17.570059
 H   15.296602   16.485165   17.909521
 H   16.648554   15.361575   17.529215
 O   14.619172   14.062949   15.883918
 O   15.595821   16.085936   15.894770
 O   15.085433   15.095439   13.921090
